 ****** HSPICE -- O-2018.09-SP2 win64 (Feb 25 2019) ******                      
  Copyright (c) 1986 - 2020 by Synopsys, Inc. All Rights Reserved.              
  This software and the associated documentation are proprietary
  to Synopsys, Inc. This software may only be used in accordance
  with the terms and conditions of a written license agreement with
  Synopsys, Inc. All other use, reproduction, or distribution of
  this software is strictly prohibited.
  Input File: mc.sp                                                             
  Command line options: C:\synopsys\Hspice_O-2018.09-SP2\WIN64\hspice.com -i mc.sp -o D:\DeskTOP\…Ó∂»—ßœ∞\mc\mc.lis
  Start time: Sat Oct 17 19:13:06 2020
  lic:  
  lic: FLEXlm: SDK_11.7.3 
  lic: USER:   Administrator        HOSTNAME: any 
  lic: HOSTID: "706655b94fba"       PID:      8248 
  lic: Using FLEXlm license file: 
  lic: D:\DeskTOP\hspice\Synopsys SSS Feature Keygen\synopsys.dat 
  lic: Checkout 1 hspice 
  lic: License/Maintenance for hspice will expire on 31-dec-2027/2019.12 
  lic: NODE LOCKED license on hostid "706655b94fba" 
  lic:   
  **info** Monte Carlo simulation is detected, increase number of measure digits to 7 for Monte Carlo post processing.
  **info** option measform has been reset to 1 to reduce measure file storage and enable advanced Monte Carlo data mining.
1****** HSPICE -- O-2018.09-SP2 win64 (Feb 25 2019) ******                      
 ******  
 *mc

 ****** mos   model parameters tnom=  25.000 temp=  25.000 ******
 Model file: sta_nmos.l
 Model line:            4
 Model Name: nmos  
 BSIM4 Model (Level 54)
    MOBMOD = 0
    BINUNIT = 2
    PARAMCHK = 1
    CAPMOD = 2
    DIOMOD = 1
    RDSMOD = 0
    TRNQSMOD = 0
    ACNQSMOD = 0
    RBODYMOD = 0
    RGATEMOD = 0
    PERMOD = 1
    GEOMOD = 0
    RGEOMOD = 0
    FNOIMOD = 1
    TNOIMOD = 0
    IGCMOD = 1
    IGBMOD = 1
    STIMOD = 1
    VBFWDMOD = 0
    VERSION =    4.5 
    TOXREF =  3e-09 
    TOXE = 2.83e-09 
    TOXP = 2.524e-09 
    TOXM = 2.83e-09 
    DTOX = 3.06e-10 
    EPSROX =    3.9 
    CDSC =      0 
    CDSCB =      0 
    CDSCD =      0 
    CIT = -0.0001643 
    NFACTOR =  1.298 
    XJ = 1.5e-07 
    VSAT = 9.399e+04 
    A0 =  0.255 
    AGS = 0.4187 
    A1 =      0 
    A2 =      1 
    AT = 5.55e+04 
    KETA = -0.03775 
    NSUB =  6e+16 
    NDEP = 2.31e+17 
    NSD =  1e+20 
    NGATE =  3e+20 
    GAMMA1 =      0 
    GAMMA2 =      0 
    VBX =      0 
    VBM =     -3 
    XT = 1.55e-07 
    K1 =  0.262 
    KT1 = -0.3622 
    KT1L =      0 
    KT2 = -0.06205 
    K2 = 0.03629 
    K3 =      0 
    K3B =      0 
    LPE0 =  9e-08 
    LPEB =      0 
    DVTP0 = 5.5e-06 
    DVTP1 =   2.05 
    W0 =      0 
    DVT0 =   15.2 
    DVT1 =  1.815 
    DVT2 =   0.05 
    DVT0W =      0 
    DVT1W =      0 
    DVT2W =      0 
    DROUT =      0 
    DSUB =    0.7 
    VTH0 = 0.2544 
    EU =   1.67 
    UA = -2.289e-10 
    UA1 = 1.881e-09 
    UB = 1.986e-18 
    UB1 = -3.644e-18 
    UC = 1.902e-10 
    UC1 = -1.904e-10 
    U0 = 0.04939 
    UTE =  -1.71 
    VOFF = -0.1165 
    VOFFL =  1e-09 
    MINV =      0 
    FPROUT =    100 
    PDITS =      0 
    PDITSD =      0 
    PDITSL =      0 
    DELTA = 0.0075 
    RDSW =    130 
    RDSWMIN =      0 
    RDWMIN =      0 
    RSWMIN =      0 
    RDW =    100 
    RSW =    100 
    PRWG =      0 
    PRWB =      0 
    PRT =      0 
    ETA0 = -0.03118 
    ETAB = -0.1263 
    PCLM = 0.4411 
    PDIBLC1 =      0 
    PDIBLC2 = 0.0001 
    PDIBLCB =      0 
    PSCBE1 = 9.264e+08 
    PSCBE2 =  1e-20 
    PVAG =   1.35 
    WR =      1 
    DWG =      0 
    DWB =      0 
    XW = 1.5e-08 
    XWREF = 1.5e-08 
    XL = -2e-08 
    XLREF = -2e-08 
    B0 =      0 
    B1 =      0 
    ALPHA0 =      0 
    ALPHA1 =    0.1 
    AGIDL =  9e-08 
    BGIDL = 2.3e+09 
    CGIDL =    0.5 
    PHIN =      0 
    EGIDL =   0.53 
    AIGC = 0.01133 
    BIGC = 0.001474 
    CIGC =      0 
    AIGSD = 0.01005 
    BIGSD = 0.0004517 
    CIGSD = 0.0001 
    AIGBACC = 0.01228 
    BIGBACC = 0.003181 
    CIGBACC = 0.0977 
    AIGBINV =   0.35 
    BIGBINV =   0.03 
    CIGBINV =  0.006 
    NIGC =    2.1 
    NIGBINV =      1 
    NIGBACC =  4.326 
    NTOX =      1 
    EIGBINV =    1.1 
    PIGCD =  3.217 
    POXEDGE =      1 
    XRCRG1 =     12 
    TNOIA =    1.5 
    TNOIB =    3.5 
    NTNOI =      1 
    XRCRG2 =      1 
    BETA0 =    9.5 
    IJTHDFWD =   0.01 
    IJTHSFWD =   0.01 
    IJTHDREV =   0.01 
    IJTHSREV =   0.01 
    XJBVD =      1 
    XJBVS =      1 
    BVD =     10 
    BVS =     10 
    VFB =     -1 
    GBMIN =  1e-12 
    RBDB =     50 
    RBPB =     50 
    RBSB =     50 
    RBPS =     50 
    RBPD =     50 
    CGSL = 5.65e-11 
    CGDL = 5.65e-11 
    CKAPPAS =    0.6 
    CKAPPAD =    0.6 
    CF = 1.29e-10 
    CLC =  1e-07 
    CLE =    0.6 
    DWC =      0 
    DLC = 1.367e-08 
    DLCIG = 2.5e-09 
    DWJ =      0 
    VFBCV =     -1 
    ACDE =    1.2 
    MOIN =   18.5 
    NOFF =   2.24 
    VOFFCV =   -0.1 
    DMCG = 8.5e-08 
    DMCI = 8.5e-08 
    DMDG =      0 
    DMCGT =      0 
    XGW =      0 
    XGL =      0 
    RSHG =    0.1 
    NGCON =      1 
    TCJ = 0.000778 
    TPB =  0.001 
    TCJSW = 0.000357 
    TPBSW = 0.0019 
    TCJSWG = 0.00301 
    TPBSWG = 0.0019 
    SK0 =      0 
    SK1 =      0 
    SK2 =      0 
    SL =  2e-06 
    SW =  2e-06 
    K =      0 
    LCIT = 2.073e-10 
    LVSAT = 0.0005828 
    LA0 = 1.999e-07 
    LAGS = 7.256e-08 
    LKETA = -5.436e-10 
    LKT1 = -4.515e-09 
    LK2 = -9.214e-10 
    LVTH0 = -5.216e-09 
    LUA = 5.989e-19 
    LUA1 = 2.627e-16 
    LUB = 1.382e-26 
    LUB1 = -2.581e-25 
    LUC = -8.293e-19 
    LU0 = -7.02e-10 
    LUTE = 3.237e-08 
    LVOFF = -4.619e-09 
    LETA0 = 1.585e-08 
    LETAB = 2.353e-09 
    LPCLM = 3.417e-08 
    WVTH0 = -1.034e-08 
    WU0 = -1.708e-09 
    PVTH0 = 2.323e-16 
    PU0 = 7.905e-17 
    TNOM =  298.1 
    CGSO = 1.15e-10 
    CGDO = 1.15e-10 
    CGBO =      0 
    XPART =      1 
    RSH =   10.5 
    JSS =  2e-07 
    JSWS = 3.5e-13 
    JSWGS = 1.3e-12 
    PBS =    0.5 
    MJS =   0.25 
    PBSWS =    0.8 
    MJSWS =   0.01 
    CJS = 0.000981 
    CJSWS = 5.5e-11 
    NJS =      1 
    PBSWGS =   0.47 
    MJSWGS =    0.5 
    CJSWGS = 2.73e-10 
    XTIS =      3 
    JSD =  2e-07 
    JSWD = 3.5e-13 
    JSWGD = 1.3e-12 
    PBD =    0.5 
    MJD =   0.25 
    PBSWD =    0.8 
    MJSWD =   0.01 
    CJD = 0.000981 
    CJSWD = 5.5e-11 
    NJD =      1 
    PBSWGD =   0.47 
    MJSWGD =    0.5 
    CJSWGD = 2.73e-10 
    XTID =      3 
    LMLT =      1 
    WMLT =      1 
    LINT = 2.5e-09 
    LL =      0 
    LLC =      0 
    LLN =      1 
    LW =      0 
    LWC =      0 
    LWN =      1 
    LWL =      0 
    LWLC =      0 
    LMIN =      0 
    LMAX =      1 
    WINT =  6e-09 
    WL =      0 
    WLC =      0 
    WLN =      1 
    WW =      0 
    WWC =      0 
    WWN =      1 
    WWL =      0 
    WWLC =      0 
    WMIN =      0 
    WMAX =      1 
    NOIA = 3.293e+41 
    NOIB = 1.012e+25 
    NOIC =   8.75 
    EM = 3.192e+07 
    EF =   0.85 
    AF =      1 
    KF =      0 
    TRS =      0 
    TRD =      0 
    TEMPMOD  =      0 
    LAMBDA   =      0 
    VTL      =  2e+05 m/s
    LC       =  5e-09 
    XN       =      3 
    LLAMBDA  =      0 
    LVTL     =      0 
    LXN      =      0 
    WLAMBDA  =      0 
    WVTL     =      0 
    WXN      =      0 
    PLAMBDA  =      0 
    PVTL     =      0 
    PXN      =      0 
    RNOIA    =  0.577 
    RNOIB    = 0.5164 
    SAREF(SA0) = 6.3e-07 m
    SBREF(SB0) = 6.3e-07 m
    WLOD     = 1.5e-07 m
    KU0      = -3.849e-08 1/m
    KVSAT    =   0.35 
    KVTH0    = 2.5e-09 m
    TKU0     =    0.1 
    LLODKU0  =      1 
    WLODKU0  =      1 
    LLODVTH  =      1 
    WLODVTH  =      1 
    LKU0     = 1.257e-08 
    WKU0     =  1e-07 
    PKU0     =  5e-14 
    LKVTH0   = -2.68e-11 
    WKVTH0   =      0 
    PKVTH0   =      0 
    STK2     =  4e-10 
    LODK2    =    0.5 
    STETA0   =      0 
    LODETA0  =      1 
    LXRCRG1  =      0 
    WXRCRG1  =      0 
    PXRCRG1  =      0 
    LXRCRG2  =      0 
    WXRCRG2  =      0 
    PXRCRG2  =      0 
     *** UCB's BSIM4.4.0 new diode model is activated. ***
    *** UCB's Diode Model Parameters ***
    JTSS         =      0 
    JTSSWS       =      0 
    JTSSWGS      =      0 
    JTSD         =      0 
    JTSSWD       =      0 
    JTSSWGD      =      0 
    NJTS         =     20 
    NJTSSW       =     20 
    NJTSSWG      =     20 
    XTSS         =   0.02 
    XTSSWS       =   0.02 
    XTSSWGS      =   0.02 
    XTSD         =   0.02 
    XTSSWD       =   0.02 
    XTSSWGD      =   0.02 
    TNJTS        =      0 
    TNJTSSW      =      0 
    TNJTSSWG     =      0 
    VFBSDOFF     =      0 
    LVFBSDOFF    =      0 
    WVFBSDOFF    =      0 
    PVFBSDOFF    =      0 
    LINTNOI      =      0 
    VTSS         =     10 
    VTSD         =     10 
    VTSSWS       =     10 
    VTSSWD       =     10 
    VTSSWGS      =     10 
    VTSSWGD      =     10 
    TTDIOMOD     =      1 
     *** UCB's BSIM4.5.0 new model is activated. ***
    UD         =      0 
    UD1        =      0 
    UP         =      0 
    LP         =  1e-08 
    TVOFF      =      0 
    TVFBSDOFF  =      0 
    RBPS0      =     50 
    RBPSL      =      0 
    RBPSW      =      0 
    RBPSNF     =      0 
    RBPD0      =     50 
    RBPDL      =      0 
    RBPDW      =      0 
    RBPDNF     =      0 
    RBPBX0     =    100 
    RBPBXL     =      0 
    RBPBXW     =      0 
    RBPBXNF    =      0 
    RBPBY0     =    100 
    RBPBYL     =      0 
    RBPBYW     =      0 
    RBPBYNF    =      0 
    RBSBX0     =    100 
    RBSBY0     =    100 
    RBDBX0     =    100 
    RBDBY0     =    100 
    RBSDBXL    =      0 
    RBSDBXW    =      0 
    RBSDBXNF   =      0 
    RBSDBYL    =      0 
    RBSDBYW    =      0 
    RBSDBYNF   =      0 
    LUD        =      0 
    LUD1       =      0 
    LUP        =      0 
    LLP        =      0 
    LTVOFF     =      0 
    LTVFBSDOFF =      0 
    WUD        =      0 
    WUD1       =      0 
    WUP        =      0 
    WLP        =      0 
    WTVOFF     =      0 
    WTVFBSDOFF =      0 
    PUD        =      0 
    PUD1       =      0 
    PUP        =      0 
    PLP        =      0 
    PTVOFF     =      0 
    PTVFBSDOFF =      0 
    WEB        =   -220 
    WEC        =  -3000 
    KVTH0WE    = 0.0049 
    K2WE       = 0.0015 
    KU0WE      = -0.002 
    SCREF      =  1e-06 
    WPEMOD     =      0 
    LKVTH0WE   = -1.2e-10 
    LK2WE      =      0 
    LKU0WE     =      0 
    WKVTH0WE   =      0 
    WK2WE      =      0 
    WKU0WE     =      0 
    PKVTH0WE   =      0 
    PK2WE      =      0 
    PKU0WE     =      0 
  **warning** (nmos:m1 (mc.sp:5)) Warning: Eta0 * Muleta0 + Deleta0 = -0.0149188 is negative in BSIM4 model with w=1e-06 l=1e-06.
*** info *** index=1 is a nominal sample in Monte Carlo.
*** info *** The MCG Random Number Generator and .Option Use_Agauss_Format = Yes are set as defaults starting with HSPICE L-2016.06 to address the needs of advanced technology nodes with large samples and/or large circuits, particularly for distributed processing.
*** Should you want backward compatibility, please use the following options:
For traditional Gaussian style variations, use .Option Random_Generator = 3LC;
For Variation Block style variations, use .Option Random_Generator = MOA.
  
      

Element variations(Local):   element              parameter

MONTE CARLO DEFINITIONS


Option sampling_method was set, variation block and agauss format variation are in effect.

Random number generator is MCG            , and seed =      1, stream =   1
 *****************************************************************
 ******  option summary
 ******
 runlvl  = 3         bypass  = 2.0000    
 ******
 *mc

 ****** dc transfer curves tnom=  25.000 temp=  25.000 ******
 
   *** monte carlo  index = 1 ***
x

 volt         i drn     
             m1         
    0.         50.7286p 
   50.00000m  263.2834p 
  100.00000m    1.3324n 
  150.00000m    6.4121n 
  200.00000m   28.3361n 
  250.00000m  111.6334n 
  300.00000m  385.6209n 
  350.00000m    1.1186u 
  400.00000m    2.5488u 
  450.00000m    4.5452u 
  500.00000m    6.8019u 
  550.00000m    9.1219u 
  600.00000m   11.4144u 
  650.00000m   13.6412u 
  700.00000m   15.7865u 
  750.00000m   17.8432u 
  800.00000m   19.8083u 
  850.00000m   21.6804u 
  900.00000m   23.4591u 
  950.00000m   25.1451u 
    1.00000    26.7396u 
y
 vth0_value= 254.3500m
 u0_param=  49.3900m
 vsat_param=  93.9859k
 
   *** monte carlo  index = 2 ***
x

 volt         i drn     
             m1         
    0.         53.4402p 
   50.00000m  277.3142p 
  100.00000m    1.4028n 
  150.00000m    6.7451n 
  200.00000m   29.7683n 
  250.00000m  117.0866n 
  300.00000m  403.6614n 
  350.00000m    1.1676u 
  400.00000m    2.6511u 
  450.00000m    4.7143u 
  500.00000m    7.0422u 
  550.00000m    9.4334u 
  600.00000m   11.7951u 
  650.00000m   14.0886u 
  700.00000m   16.2977u 
  750.00000m   18.4153u 
  800.00000m   20.4382u 
  850.00000m   22.3651u 
  900.00000m   24.1957u 
  950.00000m   25.9307u 
    1.00000    27.5713u 
y
 vth0_value= 253.7192m
 u0_param=  50.8716m
 vsat_param=  94.4166k
 
   *** monte carlo  index = 3 ***
x

 volt         i drn     
             m1         
    0.         42.2882p 
   50.00000m  219.8535p 
  100.00000m    1.1171n 
  150.00000m    5.4159n 
  200.00000m   24.2133n 
  250.00000m   96.7435n 
  300.00000m  339.6897n 
  350.00000m    1.0089u 
  400.00000m    2.3681u 
  450.00000m    4.3300u 
  500.00000m    6.5850u 
  550.00000m    8.9192u 
  600.00000m   11.2316u 
  650.00000m   13.4801u 
  700.00000m   15.6471u 
  750.00000m   17.7249u 
  800.00000m   19.7102u 
  850.00000m   21.6016u 
  900.00000m   23.3989u 
  950.00000m   25.1025u 
    1.00000    26.7137u 
y
 vth0_value= 260.1032m
 u0_param=  49.9038m
 vsat_param=  94.7241k
 
   *** monte carlo  index = 4 ***
x

 volt         i drn     
             m1         
    0.         62.2214p 
   50.00000m  322.2672p 
  100.00000m    1.6235n 
  150.00000m    7.7474n 
  200.00000m   33.8024n 
  250.00000m  131.1745n 
  300.00000m  445.0697n 
  350.00000m    1.2579u 
  400.00000m    2.7769u 
  450.00000m    4.8275u 
  500.00000m    7.1086u 
  550.00000m    9.4385u 
  600.00000m   11.7349u 
  650.00000m   13.9633u 
  700.00000m   16.1092u 
  750.00000m   18.1662u 
  800.00000m   20.1313u 
  850.00000m   22.0031u 
  900.00000m   23.7815u 
  950.00000m   25.4669u 
    1.00000    27.0607u 
y
 vth0_value= 248.2501m
 u0_param=  49.3761m
 vsat_param=  94.5536k
 
   *** monte carlo  index = 5 ***
x

 volt         i drn     
             m1         
    0.         41.3805p 
   50.00000m  215.1442p 
  100.00000m    1.0933n 
  150.00000m    5.3025n 
  200.00000m   23.7184n 
  250.00000m   94.8256n 
  300.00000m  333.1942n 
  350.00000m  990.5913n 
  400.00000m    2.3283u 
  450.00000m    4.2623u 
  500.00000m    6.4872u 
  550.00000m    8.7911u 
  600.00000m   11.0740u 
  650.00000m   13.2941u 
  700.00000m   15.4339u 
  750.00000m   17.4859u 
  800.00000m   19.4466u 
  850.00000m   21.3148u 
  900.00000m   23.0900u 
  950.00000m   24.7730u 
    1.00000    26.3647u 
y
 vth0_value= 260.3625m
 u0_param=  49.2940m
 vsat_param=  92.8499k
 
   *** monte carlo  index = 6 ***
x

 volt         i drn     
             m1         
    0.        113.2845p 
   50.00000m  582.5121p 
  100.00000m    2.8906n 
  150.00000m   13.4290n 
  200.00000m   56.3900n 
  250.00000m  209.4615n 
  300.00000m  672.5308n 
  350.00000m    1.7551u 
  400.00000m    3.5479u 
  450.00000m    5.7770u 
  500.00000m    8.1663u 
  550.00000m   10.5704u 
  600.00000m   12.9261u 
  650.00000m   15.2066u 
  700.00000m   17.4005u 
  750.00000m   19.5023u 
  800.00000m   21.5094u 
  850.00000m   23.4207u 
  900.00000m   25.2359u 
  950.00000m   26.9557u 
    1.00000    28.5814u 
y
 vth0_value= 231.0040m
 u0_param=  50.4523m
 vsat_param=  94.2131k
 
   *** monte carlo  index = 7 ***
x

 volt         i drn     
             m1         
    0.        142.1801p 
   50.00000m  728.4404p 
  100.00000m    3.5887n 
  150.00000m   16.4689n 
  200.00000m   68.0267n 
  250.00000m  248.0830n 
  300.00000m  777.1822n 
  350.00000m    1.9594u 
  400.00000m    3.8261u 
  450.00000m    6.0822u 
  500.00000m    8.4712u 
  550.00000m   10.8635u 
  600.00000m   13.2033u 
  650.00000m   15.4669u 
  700.00000m   17.6439u 
  750.00000m   19.7292u 
  800.00000m   21.7204u 
  850.00000m   23.6163u 
  900.00000m   25.4168u 
  950.00000m   27.1226u 
    1.00000    28.7347u 
y
 vth0_value= 223.9248m
 u0_param=  50.0209m
 vsat_param=  95.6219k
 
   *** monte carlo  index = 8 ***
x

 volt         i drn     
             m1         
    0.        110.5544p 
   50.00000m  568.7364p 
  100.00000m    2.8248n 
  150.00000m   13.1445n 
  200.00000m   55.3166n 
  250.00000m  205.9884n 
  300.00000m  663.5778n 
  350.00000m    1.7399u 
  400.00000m    3.5340u 
  450.00000m    5.7735u 
  500.00000m    8.1781u 
  550.00000m   10.5992u 
  600.00000m   12.9719u 
  650.00000m   15.2691u 
  700.00000m   17.4789u 
  750.00000m   19.5959u 
  800.00000m   21.6175u 
  850.00000m   23.5424u 
  900.00000m   25.3705u 
  950.00000m   27.1025u 
    1.00000    28.7395u 
y
 vth0_value= 231.9527m
 u0_param=  50.8005m
 vsat_param=  96.6691k
 
   *** monte carlo  index = 9 ***
x

 volt         i drn     
             m1         
    0.         37.9132p 
   50.00000m  197.2454p 
  100.00000m    1.0040n 
  150.00000m    4.8845n 
  200.00000m   21.9576n 
  250.00000m   88.3297n 
  300.00000m  312.5846n 
  350.00000m  938.8216n 
  400.00000m    2.2358u 
  450.00000m    4.1400u 
  500.00000m    6.3479u 
  550.00000m    8.6418u 
  600.00000m   10.9177u 
  650.00000m   13.1320u 
  700.00000m   15.2666u 
  750.00000m   17.3138u 
  800.00000m   19.2701u 
  850.00000m   21.1341u 
  900.00000m   22.9054u 
  950.00000m   24.5847u 
    1.00000    26.1730u 
y
 vth0_value= 262.8909m
 u0_param=  49.1634m
 vsat_param=  94.3949k
 
   *** monte carlo  index = 10 ***
x

 volt         i drn     
             m1         
    0.         84.7202p 
   50.00000m  437.2760p 
  100.00000m    2.1867n 
  150.00000m   10.2969n 
  200.00000m   44.0612n 
  250.00000m  167.1974n 
  300.00000m  551.8426n 
  350.00000m    1.4982u 
  400.00000m    3.1589u 
  450.00000m    5.3024u 
  500.00000m    7.6381u 
  550.00000m   10.0040u 
  600.00000m   12.3281u 
  650.00000m   14.5805u 
  700.00000m   16.7483u 
  750.00000m   18.8257u 
  800.00000m   20.8097u 
  850.00000m   22.6993u 
  900.00000m   24.4942u 
  950.00000m   26.1951u 
    1.00000    27.8031u 
y
 vth0_value= 239.3268m
 u0_param=  49.8554m
 vsat_param=  95.5493k
 
   *** monte carlo  index = 11 ***
x

 volt         i drn     
             m1         
    0.         46.7450p 
   50.00000m  242.7943p 
  100.00000m    1.2309n 
  150.00000m    5.9429n 
  200.00000m   26.3962n 
  250.00000m  104.6259n 
  300.00000m  363.9802n 
  350.00000m    1.0667u 
  400.00000m    2.4618u 
  450.00000m    4.4372u 
  500.00000m    6.6861u 
  550.00000m    9.0047u 
  600.00000m   11.2983u 
  650.00000m   13.5272u 
  700.00000m   15.6750u 
  750.00000m   17.7343u 
  800.00000m   19.7019u 
  850.00000m   21.5764u 
  900.00000m   23.3576u 
  950.00000m   25.0461u 
    1.00000    26.6429u 
y
 vth0_value= 256.8380m
 u0_param=  49.4653m
 vsat_param=  92.8637k
 
   *** monte carlo  index = 12 ***
x

 volt         i drn     
             m1         
    0.         85.0672p 
   50.00000m  439.0682p 
  100.00000m    2.1956n 
  150.00000m   10.3390n 
  200.00000m   44.2410n 
  250.00000m  167.8752n 
  300.00000m  554.0497n 
  350.00000m    1.5041u 
  400.00000m    3.1712u 
  450.00000m    5.3228u 
  500.00000m    7.6674u 
  550.00000m   10.0422u 
  600.00000m   12.3750u 
  650.00000m   14.6359u 
  700.00000m   16.8118u 
  750.00000m   18.8968u 
  800.00000m   20.8882u 
  850.00000m   22.7848u 
  900.00000m   24.5863u 
  950.00000m   26.2934u 
    1.00000    27.9073u 
y
 vth0_value= 239.3250m
 u0_param=  50.0491m
 vsat_param=  95.0964k
 
   *** monte carlo  index = 13 ***
x

 volt         i drn     
             m1         
    0.         72.2484p 
   50.00000m  373.6792p 
  100.00000m    1.8768n 
  150.00000m    8.9064n 
  200.00000m   38.5415n 
  250.00000m  148.1425n 
  300.00000m  496.8187n 
  350.00000m    1.3805u 
  400.00000m    2.9878u 
  450.00000m    5.1149u 
  500.00000m    7.4592u 
  550.00000m    9.8444u 
  600.00000m   12.1917u 
  650.00000m   14.4679u 
  700.00000m   16.6591u 
  750.00000m   18.7590u 
  800.00000m   20.7647u 
  850.00000m   22.6750u 
  900.00000m   24.4896u 
  950.00000m   26.2091u 
    1.00000    27.8349u 
y
 vth0_value= 244.4336m
 u0_param=  50.4070m
 vsat_param=  95.9888k
 
   *** monte carlo  index = 14 ***
x

 volt         i drn     
             m1         
    0.         54.4849p 
   50.00000m  282.5547p 
  100.00000m    1.4275n 
  150.00000m    6.8472n 
  200.00000m   30.1090n 
  250.00000m  117.9208n 
  300.00000m  404.5243n 
  350.00000m    1.1617u 
  400.00000m    2.6144u 
  450.00000m    4.6153u 
  500.00000m    6.8625u 
  550.00000m    9.1668u 
  600.00000m   11.4415u 
  650.00000m   13.6503u 
  700.00000m   15.7779u 
  750.00000m   17.8177u 
  800.00000m   19.7665u 
  850.00000m   21.6230u 
  900.00000m   23.3870u 
  950.00000m   25.0591u 
    1.00000    26.6403u 
y
 vth0_value= 251.9536m
 u0_param=  48.9755m
 vsat_param=  93.6869k
 
   *** monte carlo  index = 15 ***
x

 volt         i drn     
             m1         
    0.         35.4379p 
   50.00000m  184.4162p 
  100.00000m  939.4678p 
  150.00000m    4.5777n 
  200.00000m   20.6301n 
  250.00000m   83.2518n 
  300.00000m  295.6832n 
  350.00000m  892.6488n 
  400.00000m    2.1403u 
  450.00000m    3.9869u 
  500.00000m    6.1373u 
  550.00000m    8.3756u 
  600.00000m   10.5982u 
  650.00000m   12.7615u 
  700.00000m   14.8474u 
  750.00000m   16.8483u 
  800.00000m   18.7605u 
  850.00000m   20.5828u 
  900.00000m   22.3147u 
  950.00000m   23.9567u 
    1.00000    25.5100u 
y
 vth0_value= 264.1898m
 u0_param=  48.0547m
 vsat_param=  92.8876k
 
   *** monte carlo  index = 16 ***
x

 volt         i drn     
             m1         
    0.         60.0174p 
   50.00000m  310.9613p 
  100.00000m    1.5678n 
  150.00000m    7.4920n 
  200.00000m   32.7582n 
  250.00000m  127.4398n 
  300.00000m  433.6993n 
  350.00000m    1.2311u 
  400.00000m    2.7320u 
  450.00000m    4.7690u 
  500.00000m    7.0408u 
  550.00000m    9.3636u 
  600.00000m   11.6538u 
  650.00000m   13.8767u 
  700.00000m   16.0174u 
  750.00000m   18.0696u 
  800.00000m   20.0300u 
  850.00000m   21.8975u 
  900.00000m   23.6718u 
  950.00000m   25.3535u 
    1.00000    26.9437u 
y
 vth0_value= 249.2536m
 u0_param=  49.2628m
 vsat_param=  94.3274k
 
   *** monte carlo  index = 17 ***
x

 volt         i drn     
             m1         
    0.         91.8313p 
   50.00000m  473.5516p 
  100.00000m    2.3636n 
  150.00000m   11.0929n 
  200.00000m   47.2420n 
  250.00000m  178.2916n 
  300.00000m  584.3574n 
  350.00000m    1.5706u 
  400.00000m    3.2755u 
  450.00000m    5.4543u 
  500.00000m    7.8179u 
  550.00000m   10.2078u 
  600.00000m   12.5539u 
  650.00000m   14.8268u 
  700.00000m   17.0141u 
  750.00000m   19.1100u 
  800.00000m   21.1116u 
  850.00000m   23.0178u 
  900.00000m   24.8285u 
  950.00000m   26.5442u 
    1.00000    28.1662u 
y
 vth0_value= 237.2081m
 u0_param=  50.3203m
 vsat_param=  93.6097k
 
   *** monte carlo  index = 18 ***
x

 volt         i drn     
             m1         
    0.         25.7302p 
   50.00000m  134.1715p 
  100.00000m  687.5190p 
  150.00000m    3.3883n 
  200.00000m   15.5579n 
  250.00000m   64.3077n 
  300.00000m  234.6577n 
  350.00000m  735.5410n 
  400.00000m    1.8555u 
  450.00000m    3.6241u 
  500.00000m    5.7584u 
  550.00000m    8.0131u 
  600.00000m   10.2651u 
  650.00000m   12.4619u 
  700.00000m   14.5819u 
  750.00000m   16.6161u 
  800.00000m   18.5606u 
  850.00000m   20.4136u 
  900.00000m   22.1750u 
  950.00000m   23.8452u 
    1.00000    25.4252u 
y
 vth0_value= 274.2588m
 u0_param=  48.8811m
 vsat_param=  93.6160k
 
   *** monte carlo  index = 19 ***
x

 volt         i drn     
             m1         
    0.         92.9571p 
   50.00000m  479.1051p 
  100.00000m    2.3889n 
  150.00000m   11.1911n 
  200.00000m   47.5401n 
  250.00000m  178.9213n 
  300.00000m  584.4198n 
  350.00000m    1.5630u 
  400.00000m    3.2416u 
  450.00000m    5.3759u 
  500.00000m    7.6861u 
  550.00000m   10.0200u 
  600.00000m   12.3105u 
  650.00000m   14.5296u 
  700.00000m   16.6651u 
  750.00000m   18.7115u 
  800.00000m   20.6660u 
  850.00000m   22.5275u 
  900.00000m   24.2958u 
  950.00000m   25.9713u 
    1.00000    27.5554u 
y
 vth0_value= 236.0679m
 u0_param=  49.0915m
 vsat_param=  95.5791k
 
   *** monte carlo  index = 20 ***
x

 volt         i drn     
             m1         
    0.         32.9979p 
   50.00000m  171.8316p 
  100.00000m  876.8119p 
  150.00000m    4.2859n 
  200.00000m   19.4150n 
  250.00000m   78.8565n 
  300.00000m  282.1247n 
  350.00000m  860.5121n 
  400.00000m    2.0916u 
  450.00000m    3.9446u 
  500.00000m    6.1220u 
  550.00000m    8.3964u 
  600.00000m   10.6581u 
  650.00000m   12.8605u 
  700.00000m   14.9844u 
  750.00000m   17.0217u 
  800.00000m   18.9688u 
  850.00000m   20.8241u 
  900.00000m   22.5874u 
  950.00000m   24.2591u 
    1.00000    25.8405u 
y
 vth0_value= 266.8860m
 u0_param=  48.9370m
 vsat_param=  93.6474k
 
   *** monte carlo  index = 21 ***
x

 volt         i drn     
             m1         
    0.         83.9821p 
   50.00000m  433.5289p 
  100.00000m    2.1686n 
  150.00000m   10.2170n 
  200.00000m   43.7512n 
  250.00000m  166.1548n 
  300.00000m  548.9345n 
  350.00000m    1.4925u 
  400.00000m    3.1519u 
  450.00000m    5.2972u 
  500.00000m    7.6366u 
  550.00000m   10.0070u 
  600.00000m   12.3357u 
  650.00000m   14.5927u 
  700.00000m   16.7650u 
  750.00000m   18.8467u 
  800.00000m   20.8349u 
  850.00000m   22.7285u 
  900.00000m   24.5272u 
  950.00000m   26.2317u 
    1.00000    27.8431u 
y
 vth0_value= 239.6633m
 u0_param=  49.9728m
 vsat_param=  93.9872k
 
   *** monte carlo  index = 22 ***
x

 volt         i drn     
             m1         
    0.         69.5713p 
   50.00000m  359.9222p 
  100.00000m    1.8087n 
  150.00000m    8.5921n 
  200.00000m   37.2373n 
  250.00000m  143.3785n 
  300.00000m  481.8689n 
  350.00000m    1.3431u 
  400.00000m    2.9174u 
  450.00000m    5.0083u 
  500.00000m    7.3166u 
  550.00000m    9.6670u 
  600.00000m   11.9808u 
  650.00000m   14.2249u 
  700.00000m   16.3855u 
  750.00000m   18.4563u 
  800.00000m   20.4344u 
  850.00000m   22.3185u 
  900.00000m   24.1084u 
  950.00000m   25.8047u 
    1.00000    27.4086u 
y
 vth0_value= 245.1257m
 u0_param=  49.7099m
 vsat_param=  94.4353k
 
   *** monte carlo  index = 23 ***
x

 volt         i drn     
             m1         
    0.         58.2569p 
   50.00000m  301.9941p 
  100.00000m    1.5242n 
  150.00000m    7.2981n 
  200.00000m   32.0041n 
  250.00000m  124.9327n 
  300.00000m  426.8767n 
  350.00000m    1.2188u 
  400.00000m    2.7240u 
  450.00000m    4.7823u 
  500.00000m    7.0858u 
  550.00000m    9.4444u 
  600.00000m   11.7712u 
  650.00000m   14.0297u 
  700.00000m   16.2050u 
  750.00000m   18.2901u 
  800.00000m   20.2820u 
  850.00000m   22.1794u 
  900.00000m   23.9821u 
  950.00000m   25.6906u 
    1.00000    27.3062u 
y
 vth0_value= 250.6569m
 u0_param=  50.0791m
 vsat_param=  93.2316k
 
   *** monte carlo  index = 24 ***
x

 volt         i drn     
             m1         
    0.         53.9025p 
   50.00000m  279.5449p 
  100.00000m    1.4124n 
  150.00000m    6.7762n 
  200.00000m   29.8056n 
  250.00000m  116.7737n 
  300.00000m  400.7636n 
  350.00000m    1.1517u 
  400.00000m    2.5937u 
  450.00000m    4.5815u 
  500.00000m    6.8150u 
  550.00000m    9.1055u 
  600.00000m   11.3668u 
  650.00000m   13.5626u 
  700.00000m   15.6779u 
  750.00000m   17.7059u 
  800.00000m   19.6436u 
  850.00000m   21.4895u 
  900.00000m   23.2435u 
  950.00000m   24.9060u 
    1.00000    26.4783u 
y
 vth0_value= 252.0910m
 u0_param=  48.6888m
 vsat_param=  93.7968k
 
   *** monte carlo  index = 25 ***
x

 volt         i drn     
             m1         
    0.        133.0093p 
   50.00000m  682.6350p 
  100.00000m    3.3744n 
  150.00000m   15.5736n 
  200.00000m   64.8127n 
  250.00000m  238.3291n 
  300.00000m  754.9642n 
  350.00000m    1.9332u 
  400.00000m    3.8337u 
  450.00000m    6.1592u 
  500.00000m    8.6345u 
  550.00000m   11.1181u 
  600.00000m   13.5486u 
  650.00000m   15.9003u 
  700.00000m   18.1618u 
  750.00000m   20.3279u 
  800.00000m   22.3960u 
  850.00000m   24.3649u 
  900.00000m   26.2346u 
  950.00000m   28.0057u 
    1.00000    29.6796u 
y
 vth0_value= 227.1532m
 u0_param=  52.0176m
 vsat_param=  95.0073k
 
   *** monte carlo  index = 26 ***
x

 volt         i drn     
             m1         
    0.         42.5232p 
   50.00000m  221.0125p 
  100.00000m    1.1223n 
  150.00000m    5.4353n 
  200.00000m   24.2580n 
  250.00000m   96.7200n 
  300.00000m  338.8070n 
  350.00000m    1.0029u 
  400.00000m    2.3438u 
  450.00000m    4.2694u 
  500.00000m    6.4772u 
  550.00000m    8.7602u 
  600.00000m   11.0213u 
  650.00000m   13.2197u 
  700.00000m   15.3385u 
  750.00000m   17.3704u 
  800.00000m   19.3120u 
  850.00000m   21.1619u 
  900.00000m   22.9198u 
  950.00000m   24.5862u 
    1.00000    26.1624u 
y
 vth0_value= 259.2312m
 u0_param=  48.7965m
 vsat_param=  93.7569k
 
   *** monte carlo  index = 27 ***
x

 volt         i drn     
             m1         
    0.         70.9629p 
   50.00000m  367.1235p 
  100.00000m    1.8448n 
  150.00000m    8.7632n 
  200.00000m   37.9745n 
  250.00000m  146.1903n 
  300.00000m  491.1702n 
  350.00000m    1.3684u 
  400.00000m    2.9712u 
  450.00000m    5.0994u 
  500.00000m    7.4485u 
  550.00000m    9.8402u 
  600.00000m   12.1943u 
  650.00000m   14.4775u 
  700.00000m   16.6755u 
  750.00000m   18.7820u 
  800.00000m   20.7940u 
  850.00000m   22.7104u 
  900.00000m   24.5308u 
  950.00000m   26.2560u 
    1.00000    27.8871u 
y
 vth0_value= 245.0852m
 u0_param=  50.5997m
 vsat_param=  93.0873k
 
   *** monte carlo  index = 28 ***
x

 volt         i drn     
             m1         
    0.        138.1864p 
   50.00000m  708.3669p 
  100.00000m    3.4936n 
  150.00000m   16.0611n 
  200.00000m   66.4996n 
  250.00000m  243.1521n 
  300.00000m  764.4449n 
  350.00000m    1.9368u 
  400.00000m    3.8005u 
  450.00000m    6.0616u 
  500.00000m    8.4597u 
  550.00000m   10.8628u 
  600.00000m   13.2136u 
  650.00000m   15.4880u 
  700.00000m   17.6755u 
  750.00000m   19.7709u 
  800.00000m   21.7717u 
  850.00000m   23.6767u 
  900.00000m   25.4859u 
  950.00000m   27.1999u 
    1.00000    28.8199u 
y
 vth0_value= 224.9384m
 u0_param=  50.2732m
 vsat_param=  95.1154k
 
   *** monte carlo  index = 29 ***
x

 volt         i drn     
             m1         
    0.         33.7803p 
   50.00000m  175.8492p 
  100.00000m  896.6264p 
  150.00000m    4.3764n 
  200.00000m   19.7780n 
  250.00000m   80.0926n 
  300.00000m  285.5972n 
  350.00000m  867.0700n 
  400.00000m    2.0944u 
  450.00000m    3.9276u 
  500.00000m    6.0726u 
  550.00000m    8.3096u 
  600.00000m   10.5326u 
  650.00000m   12.6970u 
  700.00000m   14.7842u 
  750.00000m   16.7864u 
  800.00000m   18.6999u 
  850.00000m   20.5234u 
  900.00000m   22.2566u 
  950.00000m   23.8998u 
    1.00000    25.4542u 
y
 vth0_value= 265.6367m
 u0_param=  48.0817m
 vsat_param=  93.4595k
 
   *** monte carlo  index = 30 ***
x

 volt         i drn     
             m1         
    0.         35.8253p 
   50.00000m  186.4545p 
  100.00000m  950.0438p 
  150.00000m    4.6309n 
  200.00000m   20.8827n 
  250.00000m   84.3352n 
  300.00000m  299.7970n 
  350.00000m  906.2138n 
  400.00000m    2.1763u 
  450.00000m    4.0597u 
  500.00000m    6.2549u 
  550.00000m    8.5403u 
  600.00000m   10.8099u 
  650.00000m   13.0187u 
  700.00000m   15.1483u 
  750.00000m   17.1909u 
  800.00000m   19.1427u 
  850.00000m   21.0025u 
  900.00000m   22.7699u 
  950.00000m   24.4454u 
    1.00000    26.0301u 
y
 vth0_value= 264.4992m
 u0_param=  49.0408m
 vsat_param=  96.2589k
 
   *** monte carlo  index = 31 ***
x

 volt         i drn     
             m1         
    0.        140.5014p 
   50.00000m  720.2705p 
  100.00000m    3.5525n 
  150.00000m   16.3343n 
  200.00000m   67.6403n 
  250.00000m  247.3495n 
  300.00000m  777.7155n 
  350.00000m    1.9708u 
  400.00000m    3.8681u 
  450.00000m    6.1704u 
  500.00000m    8.6124u 
  550.00000m   11.0593u 
  600.00000m   13.4528u 
  650.00000m   15.7683u 
  700.00000m   17.9951u 
  750.00000m   20.1280u 
  800.00000m   22.1645u 
  850.00000m   24.1034u 
  900.00000m   25.9446u 
  950.00000m   27.6888u 
    1.00000    29.3373u 
y
 vth0_value= 225.0124m
 u0_param=  51.2007m
 vsat_param=  94.8074k
 
   *** monte carlo  index = 32 ***
x

 volt         i drn     
             m1         
    0.         61.0773p 
   50.00000m  316.3662p 
  100.00000m    1.5941n 
  150.00000m    7.6098n 
  200.00000m   33.2201n 
  250.00000m  128.9972n 
  300.00000m  438.0238n 
  350.00000m    1.2394u 
  400.00000m    2.7397u 
  450.00000m    4.7680u 
  500.00000m    7.0258u 
  550.00000m    9.3327u 
  600.00000m   11.6067u 
  650.00000m   13.8135u 
  700.00000m   15.9389u 
  750.00000m   17.9763u 
  800.00000m   19.9228u 
  850.00000m   21.7770u 
  900.00000m   23.5387u 
  950.00000m   25.2085u 
    1.00000    26.7874u 
y
 vth0_value= 248.5045m
 u0_param=  48.9106m
 vsat_param=  93.7094k
 
   *** monte carlo  index = 33 ***
x

 volt         i drn     
             m1         
    0.         68.9695p 
   50.00000m  356.8655p 
  100.00000m    1.7939n 
  150.00000m    8.5271n 
  200.00000m   36.9876n 
  250.00000m  142.5608n 
  300.00000m  479.7088n 
  350.00000m    1.3395u 
  400.00000m    2.9156u 
  450.00000m    5.0131u 
  500.00000m    7.3310u 
  550.00000m    9.6920u 
  600.00000m   12.0164u 
  650.00000m   14.2709u 
  700.00000m   16.4416u 
  750.00000m   18.5220u 
  800.00000m   20.5092u 
  850.00000m   22.4020u 
  900.00000m   24.2001u 
  950.00000m   25.9041u 
    1.00000    27.5153u 
y
 vth0_value= 245.5313m
 u0_param=  49.9468m
 vsat_param=  94.7155k
 
   *** monte carlo  index = 34 ***
x

 volt         i drn     
             m1         
    0.         42.3173p 
   50.00000m  219.9492p 
  100.00000m    1.1170n 
  150.00000m    5.4104n 
  200.00000m   24.1529n 
  250.00000m   96.3314n 
  300.00000m  337.5800n 
  350.00000m  999.8183n 
  400.00000m    2.3383u 
  450.00000m    4.2618u 
  500.00000m    6.4679u 
  550.00000m    8.7495u 
  600.00000m   11.0093u 
  650.00000m   13.2065u 
  700.00000m   15.3241u 
  750.00000m   17.3548u 
  800.00000m   19.2953u 
  850.00000m   21.1440u 
  900.00000m   22.9009u 
  950.00000m   24.5663u 
    1.00000    26.1415u 
y
 vth0_value= 259.3511m
 u0_param=  48.7525m
 vsat_param=  95.2454k
 
   *** monte carlo  index = 35 ***
x

 volt         i drn     
             m1         
    0.        177.8094p 
   50.00000m  907.7483p 
  100.00000m    4.4411n 
  150.00000m   20.1472n 
  200.00000m   81.9872n 
  250.00000m  294.0068n 
  300.00000m  899.8470n 
  350.00000m    2.1978u 
  400.00000m    4.1654u 
  450.00000m    6.4897u 
  500.00000m    8.9274u 
  550.00000m   11.3592u 
  600.00000m   13.7339u 
  650.00000m   16.0299u 
  700.00000m   18.2373u 
  750.00000m   20.3514u 
  800.00000m   22.3697u 
  850.00000m   24.2912u 
  900.00000m   26.1159u 
  950.00000m   27.8442u 
    1.00000    29.4775u 
y
 vth0_value= 217.6458m
 u0_param=  50.7204m
 vsat_param=  95.1199k
 
   *** monte carlo  index = 36 ***
x

 volt         i drn     
             m1         
    0.         41.3284p 
   50.00000m  214.8702p 
  100.00000m    1.0919n 
  150.00000m    5.2953n 
  200.00000m   23.6849n 
  250.00000m   94.6851n 
  300.00000m  332.6821n 
  350.00000m  989.0012n 
  400.00000m    2.3243u 
  450.00000m    4.2544u 
  500.00000m    6.4745u 
  550.00000m    8.7733u 
  600.00000m   11.0513u 
  650.00000m   13.2664u 
  700.00000m   15.4015u 
  750.00000m   17.4490u 
  800.00000m   19.4054u 
  850.00000m   21.2695u 
  900.00000m   23.0408u 
  950.00000m   24.7200u 
    1.00000    26.3082u 
y
 vth0_value= 260.3254m
 u0_param=  49.1741m
 vsat_param=  93.6642k
 
   *** monte carlo  index = 37 ***
x

 volt         i drn     
             m1         
    0.         41.6726p 
   50.00000m  216.6676p 
  100.00000m    1.1011n 
  150.00000m    5.3403n 
  200.00000m   23.8886n 
  250.00000m   95.5119n 
  300.00000m  335.6310n 
  350.00000m  997.9439n 
  400.00000m    2.3459u 
  450.00000m    4.2948u 
  500.00000m    6.5370u 
  550.00000m    8.8588u 
  600.00000m   11.1593u 
  650.00000m   13.3964u 
  700.00000m   15.5525u 
  750.00000m   17.6201u 
  800.00000m   19.5956u 
  850.00000m   21.4778u 
  900.00000m   23.2663u 
  950.00000m   24.9616u 
    1.00000    26.5651u 
y
 vth0_value= 260.3857m
 u0_param=  49.6621m
 vsat_param=  93.8986k
 
   *** monte carlo  index = 38 ***
x

 volt         i drn     
             m1         
    0.         54.7882p 
   50.00000m  284.1860p 
  100.00000m    1.4363n 
  150.00000m    6.8942n 
  200.00000m   30.3477n 
  250.00000m  119.0006n 
  300.00000m  408.7925n 
  350.00000m    1.1763u 
  400.00000m    2.6539u 
  450.00000m    4.6947u 
  500.00000m    6.9896u 
  550.00000m    9.3439u 
  600.00000m   11.6681u 
  650.00000m   13.9249u 
  700.00000m   16.0987u 
  750.00000m   18.1825u 
  800.00000m   20.1733u 
  850.00000m   22.0696u 
  900.00000m   23.8713u 
  950.00000m   25.5790u 
    1.00000    27.1938u 
y
 vth0_value= 252.4674m
 u0_param=  50.0527m
 vsat_param=  93.8660k
 
   *** monte carlo  index = 39 ***
x

 volt         i drn     
             m1         
    0.         29.4325p 
   50.00000m  153.3373p 
  100.00000m  783.6362p 
  150.00000m    3.8419n 
  200.00000m   17.4893n 
  250.00000m   71.4836n 
  300.00000m  257.5871n 
  350.00000m  793.6171n 
  400.00000m    1.9552u 
  450.00000m    3.7334u 
  500.00000m    5.8421u 
  550.00000m    8.0535u 
  600.00000m   10.2561u 
  650.00000m   12.4024u 
  700.00000m   14.4731u 
  750.00000m   16.4597u 
  800.00000m   18.3587u 
  850.00000m   20.1684u 
  900.00000m   21.8886u 
  950.00000m   23.5198u 
    1.00000    25.0629u 
y
 vth0_value= 269.5016m
 u0_param=  47.7209m
 vsat_param=  93.5475k
 
   *** monte carlo  index = 40 ***
x

 volt         i drn     
             m1         
    0.         76.4223p 
   50.00000m  394.8176p 
  100.00000m    1.9783n 
  150.00000m    9.3494n 
  200.00000m   40.2147n 
  250.00000m  153.5150n 
  300.00000m  510.5274n 
  350.00000m    1.4013u 
  400.00000m    2.9906u 
  450.00000m    5.0654u 
  500.00000m    7.3378u 
  550.00000m    9.6446u 
  600.00000m   11.9128u 
  650.00000m   14.1119u 
  700.00000m   16.2289u 
  750.00000m   18.2579u 
  800.00000m   20.1961u 
  850.00000m   22.0422u 
  900.00000m   23.7960u 
  950.00000m   25.4581u 
    1.00000    27.0296u 
y
 vth0_value= 241.6579m
 u0_param=  48.6752m
 vsat_param=  95.8337k
 
   *** monte carlo  index = 41 ***
x

 volt         i drn     
             m1         
    0.         44.0204p 
   50.00000m  228.7466p 
  100.00000m    1.1610n 
  150.00000m    5.6168n 
  200.00000m   25.0285n 
  250.00000m   99.5957n 
  300.00000m  348.0698n 
  350.00000m    1.0268u 
  400.00000m    2.3896u 
  450.00000m    4.3375u 
  500.00000m    6.5655u 
  550.00000m    8.8671u 
  600.00000m   11.1458u 
  650.00000m   13.3609u 
  700.00000m   15.4956u 
  750.00000m   17.5425u 
  800.00000m   19.4985u 
  850.00000m   21.3620u 
  900.00000m   23.1328u 
  950.00000m   24.8115u 
    1.00000    26.3992u 
y
 vth0_value= 258.4408m
 u0_param=  49.1736m
 vsat_param=  92.6837k
 
   *** monte carlo  index = 42 ***
x

 volt         i drn     
             m1         
    0.         68.0317p 
   50.00000m  352.0822p 
  100.00000m    1.7706n 
  150.00000m    8.4225n 
  200.00000m   36.5738n 
  250.00000m  141.1394n 
  300.00000m  475.6183n 
  350.00000m    1.3309u 
  400.00000m    2.9042u 
  450.00000m    5.0036u 
  500.00000m    7.3264u 
  550.00000m    9.6935u 
  600.00000m   12.0244u 
  650.00000m   14.2854u 
  700.00000m   16.4623u 
  750.00000m   18.5488u 
  800.00000m   20.5418u 
  850.00000m   22.4401u 
  900.00000m   24.2436u 
  950.00000m   25.9527u 
    1.00000    27.5687u 
y
 vth0_value= 246.0419m
 u0_param=  50.1043m
 vsat_param=  93.2560k
 
   *** monte carlo  index = 43 ***
x

 volt         i drn     
             m1         
    0.         40.7413p 
   50.00000m  211.8403p 
  100.00000m    1.0768n 
  150.00000m    5.2247n 
  200.00000m   23.3874n 
  250.00000m   93.5866n 
  300.00000m  329.1829n 
  350.00000m  980.1285n 
  400.00000m    2.3081u 
  450.00000m    4.2323u 
  500.00000m    6.4485u 
  550.00000m    8.7445u 
  600.00000m   11.0200u 
  650.00000m   13.2331u 
  700.00000m   15.3663u 
  750.00000m   17.4119u 
  800.00000m   19.3667u 
  850.00000m   21.2291u 
  900.00000m   22.9990u 
  950.00000m   24.6769u 
    1.00000    26.2638u 
y
 vth0_value= 260.7292m
 u0_param=  49.1389m
 vsat_param=  92.8479k
 
   *** monte carlo  index = 44 ***
x

 volt         i drn     
             m1         
    0.         14.1776p 
   50.00000m   74.0173p 
  100.00000m  382.2566p 
  150.00000m    1.9141n 
  200.00000m    9.0354n 
  250.00000m   38.7969n 
  300.00000m  147.7878n 
  350.00000m  490.0547n 
  400.00000m    1.3393u 
  450.00000m    2.8435u 
  500.00000m    4.7951u 
  550.00000m    6.9235u 
  600.00000m    9.0767u 
  650.00000m   11.1878u 
  700.00000m   13.2296u 
  750.00000m   15.1907u 
  800.00000m   17.0664u 
  850.00000m   18.8549u 
  900.00000m   20.5556u 
  950.00000m   22.1689u 
    1.00000    23.6959u 
y
 vth0_value= 290.9051m
 u0_param=  47.1684m
 vsat_param=  91.8739k
 
   *** monte carlo  index = 45 ***
x

 volt         i drn     
             m1         
    0.         43.9016p 
   50.00000m  228.2019p 
  100.00000m    1.1589n 
  150.00000m    5.6137n 
  200.00000m   25.0613n 
  250.00000m   99.9500n 
  300.00000m  350.1906n 
  350.00000m    1.0368u 
  400.00000m    2.4241u 
  450.00000m    4.4178u 
  500.00000m    6.7043u 
  550.00000m    9.0688u 
  600.00000m   11.4104u 
  650.00000m   13.6867u 
  700.00000m   15.8803u 
  750.00000m   17.9836u 
  800.00000m   19.9931u 
  850.00000m   21.9075u 
  900.00000m   23.7265u 
  950.00000m   25.4507u 
    1.00000    27.0813u 
y
 vth0_value= 259.3793m
 u0_param=  50.5410m
 vsat_param=  92.9482k
 
   *** monte carlo  index = 46 ***
x

 volt         i drn     
             m1         
    0.        119.5692p 
   50.00000m  614.0459p 
  100.00000m    3.0394n 
  150.00000m   14.0599n 
  200.00000m   58.6980n 
  250.00000m  216.6410n 
  300.00000m  689.7634n 
  350.00000m    1.7787u 
  400.00000m    3.5516u 
  450.00000m    5.7332u 
  500.00000m    8.0611u 
  550.00000m   10.3998u 
  600.00000m   12.6899u 
  650.00000m   14.9067u 
  700.00000m   17.0394u 
  750.00000m   19.0826u 
  800.00000m   21.0339u 
  850.00000m   22.8921u 
  900.00000m   24.6571u 
  950.00000m   26.3294u 
    1.00000    27.9102u 
y
 vth0_value= 228.4717m
 u0_param=  48.9990m
 vsat_param=  95.5873k
 
   *** monte carlo  index = 47 ***
x

 volt         i drn     
             m1         
    0.         13.2335p 
   50.00000m   69.0965p 
  100.00000m  357.2528p 
  150.00000m    1.7932n 
  200.00000m    8.5003n 
  250.00000m   36.7239n 
  300.00000m  140.8738n 
  350.00000m  471.1778n 
  400.00000m    1.3039u 
  450.00000m    2.8083u 
  500.00000m    4.7871u 
  550.00000m    6.9585u 
  600.00000m    9.1607u 
  650.00000m   11.3217u 
  700.00000m   13.4123u 
  750.00000m   15.4204u 
  800.00000m   17.3411u 
  850.00000m   19.1723u 
  900.00000m   20.9136u 
  950.00000m   22.5654u 
    1.00000    24.1288u 
y
 vth0_value= 293.7068m
 u0_param=  48.3070m
 vsat_param=  91.9862k
 
   *** monte carlo  index = 48 ***
x

 volt         i drn     
             m1         
    0.         59.9881p 
   50.00000m  310.7385p 
  100.00000m    1.5659n 
  150.00000m    7.4772n 
  200.00000m   32.6537n 
  250.00000m  126.8540n 
  300.00000m  430.9806n 
  350.00000m    1.2204u 
  400.00000m    2.7004u 
  450.00000m    4.7030u 
  500.00000m    6.9334u 
  550.00000m    9.2128u 
  600.00000m   11.4600u 
  650.00000m   13.6412u 
  700.00000m   15.7419u 
  750.00000m   17.7558u 
  800.00000m   19.6799u 
  850.00000m   21.5129u 
  900.00000m   23.2546u 
  950.00000m   24.9055u 
    1.00000    26.4667u 
y
 vth0_value= 248.6788m
 u0_param=  48.3480m
 vsat_param=  92.8829k
 
   *** monte carlo  index = 49 ***
x

 volt         i drn     
             m1         
    0.         44.3116p 
   50.00000m  230.2528p 
  100.00000m    1.1685n 
  150.00000m    5.6525n 
  200.00000m   25.1813n 
  250.00000m  100.1759n 
  300.00000m  349.9958n 
  350.00000m    1.0321u 
  400.00000m    2.4005u 
  450.00000m    4.3550u 
  500.00000m    6.5897u 
  550.00000m    8.8978u 
  600.00000m   11.1827u 
  650.00000m   13.4037u 
  700.00000m   15.5440u 
  750.00000m   17.5964u 
  800.00000m   19.5574u 
  850.00000m   21.4257u 
  900.00000m   23.2009u 
  950.00000m   24.8838u 
    1.00000    26.4754u 
y
 vth0_value= 258.3180m
 u0_param=  49.2834m
 vsat_param=  94.0628k
 
   *** monte carlo  index = 50 ***
x

 volt         i drn     
             m1         
    0.         47.0321p 
   50.00000m  244.2590p 
  100.00000m    1.2380n 
  150.00000m    5.9748n 
  200.00000m   26.5196n 
  250.00000m  105.0297n 
  300.00000m  365.0458n 
  350.00000m    1.0684u 
  400.00000m    2.4615u 
  450.00000m    4.4304u 
  500.00000m    6.6696u 
  550.00000m    8.9774u 
  600.00000m   11.2601u 
  650.00000m   13.4783u 
  700.00000m   15.6157u 
  750.00000m   17.6652u 
  800.00000m   19.6234u 
  850.00000m   21.4889u 
  900.00000m   23.2617u 
  950.00000m   24.9421u 
    1.00000    26.5313u 
y
 vth0_value= 256.5020m
 u0_param=  49.2190m
 vsat_param=  92.8805k

   meas_variable = vth0_value
   mean  = 250.7671m  varian = 254.6650u
   sigma =  15.9582m  avgdev =  12.6457m
   max   = 293.7068m  min    = 217.6458m
    1-sigma =  15.9582m median = 251.9536m

   meas_variable = u0_param
   mean  =  49.5008m  varian = 884.1744n
   sigma = 940.3055u  avgdev = 772.6083u
   max   =  52.0176m  min    =  47.1684m
    1-sigma = 940.3055u median =  49.2940m

   meas_variable = vsat_param
   mean  =  94.1194k  varian =   1.2551x
   sigma =   1.1203k  avgdev = 943.1071 
   max   =  96.6691k  min    =  91.8739k
    1-sigma =   1.1203k median =  93.8986k

          ***** job concluded
 ******  
 *mc

 ****** job statistics summary tnom=  25.000 temp=  25.000 ******

  ******  HSPICE Threads Information  ******

  Command Line Threads Count :     1
  Available CPU Count        :    16
  Actual Threads Count       :     1


  ******  Circuit Statistics  ******
  # nodes       =       3 # elements   =       3
  # resistors   =       0 # capacitors =       0 # inductors   =       0
  # mutual_inds =       0 # vccs       =       0 # vcvs        =       0
  # cccs        =       0 # ccvs       =       0 # volt_srcs   =       2
  # curr_srcs   =       0 # diodes     =       0 # bjts        =       0
  # jfets       =       0 # mosfets    =       1 # U elements  =       0
  # T elements  =       0 # W elements =       0 # B elements  =       0
  # S elements  =       0 # P elements =       0 # va device   =       0
  # vector_srcs =       0 # N elements =       0


  ******  Runtime Statistics (seconds)  ******

  analysis           time    # points   tot. iter  conv.iter
  op point           0.00           1           0
  dc sweep           0.03        1050        2150
  readin             0.00
  errchk             0.00
  setup              0.00
  output             0.00


           peak memory used        108.08 megabytes
           total cpu time            0.06 seconds
           total elapsed time       18.65 seconds
           job started at     19:13:06 10/17/2020
           job ended   at     19:13:24 10/17/2020


  lic: Release hspice token(s) 
 lic: total license checkout elapse time:       18.59(s)
