 ****** HSPICE -- O-2018.09-SP2 win64 (Feb 25 2019) ******                      
  Copyright (c) 1986 - 2020 by Synopsys, Inc. All Rights Reserved.              
  This software and the associated documentation are proprietary
  to Synopsys, Inc. This software may only be used in accordance
  with the terms and conditions of a written license agreement with
  Synopsys, Inc. All other use, reproduction, or distribution of
  this software is strictly prohibited.
  Input File: mc - 副本.sp                                                      
  Command line options: C:\synopsys\Hspice_O-2018.09-SP2\WIN64\hspice.com -i mc - 副本.sp -o D:\DeskTOP\深度学习\mc\mc - 副本.lis
  Start time: Thu Oct 29 09:38:59 2020
  lic:  
  lic: FLEXlm: SDK_11.7.3 
  lic: USER:   Administrator        HOSTNAME: any 
  lic: HOSTID: "706655b94fba"       PID:      1860 
  lic: Using FLEXlm license file: 
  lic: D:\DeskTOP\hspice\Synopsys SSS Feature Keygen\synopsys.dat 
  lic: Checkout 1 hspice 
  lic: License/Maintenance for hspice will expire on 31-dec-2027/2019.12 
  lic: NODE LOCKED license on hostid "706655b94fba" 
  lic:   
  **info** Monte Carlo simulation is detected, increase number of measure digits to 7 for Monte Carlo post processing.
  **info** option measform has been reset to 1 to reduce measure file storage and enable advanced Monte Carlo data mining.
1****** HSPICE -- O-2018.09-SP2 win64 (Feb 25 2019) ******                      
 ******  
 *mc

 ****** mos   model parameters tnom=  25.000 temp=  25.000 ******
 Model file: sta_nmos.l
 Model line:            4
 Model Name: nmos  
 BSIM4 Model (Level 54)
    MOBMOD = 0
    BINUNIT = 2
    PARAMCHK = 1
    CAPMOD = 2
    DIOMOD = 1
    RDSMOD = 0
    TRNQSMOD = 0
    ACNQSMOD = 0
    RBODYMOD = 0
    RGATEMOD = 0
    PERMOD = 1
    GEOMOD = 0
    RGEOMOD = 0
    FNOIMOD = 1
    TNOIMOD = 0
    IGCMOD = 1
    IGBMOD = 1
    STIMOD = 1
    VBFWDMOD = 0
    VERSION =    4.5 
    TOXREF =  3e-09 
    TOXE = 2.83e-09 
    TOXP = 2.524e-09 
    TOXM = 2.83e-09 
    DTOX = 3.06e-10 
    EPSROX =    3.9 
    CDSC =      0 
    CDSCB =      0 
    CDSCD =      0 
    CIT = -0.0001643 
    NFACTOR =  1.298 
    XJ = 1.5e-07 
    VSAT = 9.399e+04 
    A0 =  0.255 
    AGS = 0.4187 
    A1 =      0 
    A2 =      1 
    AT = 5.55e+04 
    KETA = -0.03775 
    NSUB =  6e+16 
    NDEP = 2.31e+17 
    NSD =  1e+20 
    NGATE =  3e+20 
    GAMMA1 =      0 
    GAMMA2 =      0 
    VBX =      0 
    VBM =     -3 
    XT = 1.55e-07 
    K1 =  0.262 
    KT1 = -0.3622 
    KT1L =      0 
    KT2 = -0.06205 
    K2 = 0.03629 
    K3 =      0 
    K3B =      0 
    LPE0 =  9e-08 
    LPEB =      0 
    DVTP0 = 5.5e-06 
    DVTP1 =   2.05 
    W0 =      0 
    DVT0 =   15.2 
    DVT1 =  1.815 
    DVT2 =   0.05 
    DVT0W =      0 
    DVT1W =      0 
    DVT2W =      0 
    DROUT =      0 
    DSUB =    0.7 
    VTH0 = 0.2544 
    EU =   1.67 
    UA = -2.289e-10 
    UA1 = 1.881e-09 
    UB = 1.986e-18 
    UB1 = -3.644e-18 
    UC = 1.902e-10 
    UC1 = -1.904e-10 
    U0 = 0.04939 
    UTE =  -1.71 
    VOFF = -0.1165 
    VOFFL =  1e-09 
    MINV =      0 
    FPROUT =    100 
    PDITS =      0 
    PDITSD =      0 
    PDITSL =      0 
    DELTA = 0.0075 
    RDSW =    130 
    RDSWMIN =      0 
    RDWMIN =      0 
    RSWMIN =      0 
    RDW =    100 
    RSW =    100 
    PRWG =      0 
    PRWB =      0 
    PRT =      0 
    ETA0 = -0.03118 
    ETAB = -0.1263 
    PCLM = 0.4411 
    PDIBLC1 =      0 
    PDIBLC2 = 0.0001 
    PDIBLCB =      0 
    PSCBE1 = 9.264e+08 
    PSCBE2 =  1e-20 
    PVAG =   1.35 
    WR =      1 
    DWG =      0 
    DWB =      0 
    XW = 1.5e-08 
    XWREF = 1.5e-08 
    XL = -2e-08 
    XLREF = -2e-08 
    B0 =      0 
    B1 =      0 
    ALPHA0 =      0 
    ALPHA1 =    0.1 
    AGIDL =  9e-08 
    BGIDL = 2.3e+09 
    CGIDL =    0.5 
    PHIN =      0 
    EGIDL =   0.53 
    AIGC = 0.01133 
    BIGC = 0.001474 
    CIGC =      0 
    AIGSD = 0.01005 
    BIGSD = 0.0004517 
    CIGSD = 0.0001 
    AIGBACC = 0.01228 
    BIGBACC = 0.003181 
    CIGBACC = 0.0977 
    AIGBINV =   0.35 
    BIGBINV =   0.03 
    CIGBINV =  0.006 
    NIGC =    2.1 
    NIGBINV =      1 
    NIGBACC =  4.326 
    NTOX =      1 
    EIGBINV =    1.1 
    PIGCD =  3.217 
    POXEDGE =      1 
    XRCRG1 =     12 
    TNOIA =    1.5 
    TNOIB =    3.5 
    NTNOI =      1 
    XRCRG2 =      1 
    BETA0 =    9.5 
    IJTHDFWD =   0.01 
    IJTHSFWD =   0.01 
    IJTHDREV =   0.01 
    IJTHSREV =   0.01 
    XJBVD =      1 
    XJBVS =      1 
    BVD =     10 
    BVS =     10 
    VFB =     -1 
    GBMIN =  1e-12 
    RBDB =     50 
    RBPB =     50 
    RBSB =     50 
    RBPS =     50 
    RBPD =     50 
    CGSL = 5.65e-11 
    CGDL = 5.65e-11 
    CKAPPAS =    0.6 
    CKAPPAD =    0.6 
    CF = 1.29e-10 
    CLC =  1e-07 
    CLE =    0.6 
    DWC =      0 
    DLC = 1.367e-08 
    DLCIG = 2.5e-09 
    DWJ =      0 
    VFBCV =     -1 
    ACDE =    1.2 
    MOIN =   18.5 
    NOFF =   2.24 
    VOFFCV =   -0.1 
    DMCG = 8.5e-08 
    DMCI = 8.5e-08 
    DMDG =      0 
    DMCGT =      0 
    XGW =      0 
    XGL =      0 
    RSHG =    0.1 
    NGCON =      1 
    TCJ = 0.000778 
    TPB =  0.001 
    TCJSW = 0.000357 
    TPBSW = 0.0019 
    TCJSWG = 0.00301 
    TPBSWG = 0.0019 
    SK0 =      0 
    SK1 =      0 
    SK2 =      0 
    SL =  2e-06 
    SW =  2e-06 
    K =      0 
    LCIT = 2.073e-10 
    LVSAT = 0.0005828 
    LA0 = 1.999e-07 
    LAGS = 7.256e-08 
    LKETA = -5.436e-10 
    LKT1 = -4.515e-09 
    LK2 = -9.214e-10 
    LVTH0 = -5.216e-09 
    LUA = 5.989e-19 
    LUA1 = 2.627e-16 
    LUB = 1.382e-26 
    LUB1 = -2.581e-25 
    LUC = -8.293e-19 
    LU0 = -7.02e-10 
    LUTE = 3.237e-08 
    LVOFF = -4.619e-09 
    LETA0 = 1.585e-08 
    LETAB = 2.353e-09 
    LPCLM = 3.417e-08 
    WVTH0 = -1.034e-08 
    WU0 = -1.708e-09 
    PVTH0 = 2.323e-16 
    PU0 = 7.905e-17 
    TNOM =  298.1 
    CGSO = 1.15e-10 
    CGDO = 1.15e-10 
    CGBO =      0 
    XPART =      1 
    RSH =   10.5 
    JSS =  2e-07 
    JSWS = 3.5e-13 
    JSWGS = 1.3e-12 
    PBS =    0.5 
    MJS =   0.25 
    PBSWS =    0.8 
    MJSWS =   0.01 
    CJS = 0.000981 
    CJSWS = 5.5e-11 
    NJS =      1 
    PBSWGS =   0.47 
    MJSWGS =    0.5 
    CJSWGS = 2.73e-10 
    XTIS =      3 
    JSD =  2e-07 
    JSWD = 3.5e-13 
    JSWGD = 1.3e-12 
    PBD =    0.5 
    MJD =   0.25 
    PBSWD =    0.8 
    MJSWD =   0.01 
    CJD = 0.000981 
    CJSWD = 5.5e-11 
    NJD =      1 
    PBSWGD =   0.47 
    MJSWGD =    0.5 
    CJSWGD = 2.73e-10 
    XTID =      3 
    LMLT =      1 
    WMLT =      1 
    LINT = 2.5e-09 
    LL =      0 
    LLC =      0 
    LLN =      1 
    LW =      0 
    LWC =      0 
    LWN =      1 
    LWL =      0 
    LWLC =      0 
    LMIN =      0 
    LMAX =      1 
    WINT =  6e-09 
    WL =      0 
    WLC =      0 
    WLN =      1 
    WW =      0 
    WWC =      0 
    WWN =      1 
    WWL =      0 
    WWLC =      0 
    WMIN =      0 
    WMAX =      1 
    NOIA = 3.293e+41 
    NOIB = 1.012e+25 
    NOIC =   8.75 
    EM = 3.192e+07 
    EF =   0.85 
    AF =      1 
    KF =      0 
    TRS =      0 
    TRD =      0 
    TEMPMOD  =      0 
    LAMBDA   =      0 
    VTL      =  2e+05 m/s
    LC       =  5e-09 
    XN       =      3 
    LLAMBDA  =      0 
    LVTL     =      0 
    LXN      =      0 
    WLAMBDA  =      0 
    WVTL     =      0 
    WXN      =      0 
    PLAMBDA  =      0 
    PVTL     =      0 
    PXN      =      0 
    RNOIA    =  0.577 
    RNOIB    = 0.5164 
    SAREF(SA0) = 6.3e-07 m
    SBREF(SB0) = 6.3e-07 m
    WLOD     = 1.5e-07 m
    KU0      = -3.849e-08 1/m
    KVSAT    =   0.35 
    KVTH0    = 2.5e-09 m
    TKU0     =    0.1 
    LLODKU0  =      1 
    WLODKU0  =      1 
    LLODVTH  =      1 
    WLODVTH  =      1 
    LKU0     = 1.257e-08 
    WKU0     =  1e-07 
    PKU0     =  5e-14 
    LKVTH0   = -2.68e-11 
    WKVTH0   =      0 
    PKVTH0   =      0 
    STK2     =  4e-10 
    LODK2    =    0.5 
    STETA0   =      0 
    LODETA0  =      1 
    LXRCRG1  =      0 
    WXRCRG1  =      0 
    PXRCRG1  =      0 
    LXRCRG2  =      0 
    WXRCRG2  =      0 
    PXRCRG2  =      0 
     *** UCB's BSIM4.4.0 new diode model is activated. ***
    *** UCB's Diode Model Parameters ***
    JTSS         =      0 
    JTSSWS       =      0 
    JTSSWGS      =      0 
    JTSD         =      0 
    JTSSWD       =      0 
    JTSSWGD      =      0 
    NJTS         =     20 
    NJTSSW       =     20 
    NJTSSWG      =     20 
    XTSS         =   0.02 
    XTSSWS       =   0.02 
    XTSSWGS      =   0.02 
    XTSD         =   0.02 
    XTSSWD       =   0.02 
    XTSSWGD      =   0.02 
    TNJTS        =      0 
    TNJTSSW      =      0 
    TNJTSSWG     =      0 
    VFBSDOFF     =      0 
    LVFBSDOFF    =      0 
    WVFBSDOFF    =      0 
    PVFBSDOFF    =      0 
    LINTNOI      =      0 
    VTSS         =     10 
    VTSD         =     10 
    VTSSWS       =     10 
    VTSSWD       =     10 
    VTSSWGS      =     10 
    VTSSWGD      =     10 
    TTDIOMOD     =      1 
     *** UCB's BSIM4.5.0 new model is activated. ***
    UD         =      0 
    UD1        =      0 
    UP         =      0 
    LP         =  1e-08 
    TVOFF      =      0 
    TVFBSDOFF  =      0 
    RBPS0      =     50 
    RBPSL      =      0 
    RBPSW      =      0 
    RBPSNF     =      0 
    RBPD0      =     50 
    RBPDL      =      0 
    RBPDW      =      0 
    RBPDNF     =      0 
    RBPBX0     =    100 
    RBPBXL     =      0 
    RBPBXW     =      0 
    RBPBXNF    =      0 
    RBPBY0     =    100 
    RBPBYL     =      0 
    RBPBYW     =      0 
    RBPBYNF    =      0 
    RBSBX0     =    100 
    RBSBY0     =    100 
    RBDBX0     =    100 
    RBDBY0     =    100 
    RBSDBXL    =      0 
    RBSDBXW    =      0 
    RBSDBXNF   =      0 
    RBSDBYL    =      0 
    RBSDBYW    =      0 
    RBSDBYNF   =      0 
    LUD        =      0 
    LUD1       =      0 
    LUP        =      0 
    LLP        =      0 
    LTVOFF     =      0 
    LTVFBSDOFF =      0 
    WUD        =      0 
    WUD1       =      0 
    WUP        =      0 
    WLP        =      0 
    WTVOFF     =      0 
    WTVFBSDOFF =      0 
    PUD        =      0 
    PUD1       =      0 
    PUP        =      0 
    PLP        =      0 
    PTVOFF     =      0 
    PTVFBSDOFF =      0 
    WEB        =   -220 
    WEC        =  -3000 
    KVTH0WE    = 0.0049 
    K2WE       = 0.0015 
    KU0WE      = -0.002 
    SCREF      =  1e-06 
    WPEMOD     =      0 
    LKVTH0WE   = -1.2e-10 
    LK2WE      =      0 
    LKU0WE     =      0 
    WKVTH0WE   =      0 
    WK2WE      =      0 
    WKU0WE     =      0 
    PKVTH0WE   =      0 
    PK2WE      =      0 
    PKU0WE     =      0 
  **warning** (nmos:m1 (mc - 副本.sp:6)) Warning: Eta0 * Muleta0 + Deleta0 = -0.0149188 is negative in BSIM4 model with w=1e-06 l=1e-06.
*** info *** index=1 is a nominal sample in Monte Carlo.
*** info *** The MCG Random Number Generator and .Option Use_Agauss_Format = Yes are set as defaults starting with HSPICE L-2016.06 to address the needs of advanced technology nodes with large samples and/or large circuits, particularly for distributed processing.
*** Should you want backward compatibility, please use the following options:
For traditional Gaussian style variations, use .Option Random_Generator = 3LC;
For Variation Block style variations, use .Option Random_Generator = MOA.
  
      

Element variations(Local):   element              parameter

MONTE CARLO DEFINITIONS


Option sampling_method was set, variation block and agauss format variation are in effect.

Random number generator is MCG            , and seed =      1, stream =   1
 **info** set option symb=1 internally to help for convergence.
 *****************************************************************
 ******  option summary
 ******
 runlvl  = 3         bypass  = 2.0000    
 ******
 *mc

 ****** dc transfer curves tnom=  25.000 temp=  25.000 ******
 
   *** monte carlo  index = 1 ***
x

 volt         param      param     
             i_linear   i_sat      
    0.         50.7286p   86.1188p 
   50.00000m  263.2834p  440.2865p 
  100.00000m    1.3324n    2.2029n 
  150.00000m    6.4121n   10.4110n 
  200.00000m   28.3361n   44.7822n 
  250.00000m  111.6334n  170.9429n 
  300.00000m  385.6209n  570.7653n 
  350.00000m    1.1186u    1.6051u 
  400.00000m    2.5488u    3.6799u 
  450.00000m    4.5452u    6.9880u 
  500.00000m    6.8019u   11.4817u 
  550.00000m    9.1219u   17.0200u 
  600.00000m   11.4144u   23.4660u 
  650.00000m   13.6412u   30.7081u 
  700.00000m   15.7865u   38.6535u 
  750.00000m   17.8432u   47.2211u 
  800.00000m   19.8083u   56.3367u 
  850.00000m   21.6804u   65.9311u 
  900.00000m   23.4591u   75.9389u 
  950.00000m   25.1451u   86.2989u 
    1.00000    26.7396u   96.9531u 
y
 vth0_value= 254.3500m
 u0_param=  49.3900m
 vsat_param=  93.9859k
 
   *** monte carlo  index = 2 ***
x

 volt         param      param     
             i_linear   i_sat      
    0.         53.4402p   90.7228p 
   50.00000m  277.3142p  463.9828p 
  100.00000m    1.4028n    2.3204n 
  150.00000m    6.7451n   10.9562n 
  200.00000m   29.7683n   47.0595n 
  250.00000m  117.0866n  179.3316n 
  300.00000m  403.6614n  597.5176n 
  350.00000m    1.1676u    1.6756u 
  400.00000m    2.6511u    3.8305u 
  450.00000m    4.7143u    7.2560u 
  500.00000m    7.0422u   11.8997u 
  550.00000m    9.4334u   17.6151u 
  600.00000m   11.7951u   24.2610u 
  650.00000m   14.0886u   31.7221u 
  700.00000m   16.2977u   39.9030u 
  750.00000m   18.4153u   48.7202u 
  800.00000m   20.4382u   58.0974u 
  850.00000m   22.3651u   67.9633u 
  900.00000m   24.1957u   78.2511u 
  950.00000m   25.9307u   88.8979u 
    1.00000    27.5713u   99.8442u 
y
 vth0_value= 253.7192m
 u0_param=  50.8716m
 vsat_param=  94.4166k
 
   *** monte carlo  index = 3 ***
x

 volt         param      param     
             i_linear   i_sat      
    0.         42.2882p   72.0095p 
   50.00000m  219.8535p  368.1600p 
  100.00000m    1.1171n    1.8500n 
  150.00000m    5.4159n    8.8175n 
  200.00000m   24.2133n   38.4053n 
  250.00000m   96.7435n  148.7159n 
  300.00000m  339.6897n  504.9005n 
  350.00000m    1.0089u    1.4514u 
  400.00000m    2.3681u    3.4063u 
  450.00000m    4.3300u    6.5950u 
  500.00000m    6.5850u   10.9896u 
  550.00000m    8.9192u   16.4513u 
  600.00000m   11.2316u   22.8394u 
  650.00000m   13.4801u   30.0380u 
  700.00000m   15.6471u   37.9520u 
  750.00000m   17.7249u   46.4986u 
  800.00000m   19.7102u   55.6023u 
  850.00000m   21.6016u   65.1929u 
  900.00000m   23.3989u   75.2045u 
  950.00000m   25.1025u   85.5751u 
    1.00000    26.7137u   96.2460u 
y
 vth0_value= 260.1032m
 u0_param=  49.9038m
 vsat_param=  94.7241k
 
   *** monte carlo  index = 4 ***
x

 volt         param      param     
             i_linear   i_sat      
    0.         62.2214p  105.3173p 
   50.00000m  322.2672p  538.1300p 
  100.00000m    1.6235n    2.6789n 
  150.00000m    7.7474n   12.5407n 
  200.00000m   33.8024n   53.2120n 
  250.00000m  131.1745n  200.0349n 
  300.00000m  445.0697n  655.8088n 
  350.00000m    1.2579u    1.8008u 
  400.00000m    2.7769u    4.0286u 
  450.00000m    4.8275u    7.4993u 
  500.00000m    7.1086u   12.1461u 
  550.00000m    9.4385u   17.8255u 
  600.00000m   11.7349u   24.4032u 
  650.00000m   13.9633u   31.7702u 
  700.00000m   16.1092u   39.8353u 
  750.00000m   18.1662u   48.5182u 
  800.00000m   20.1313u   57.7448u 
  850.00000m   22.0031u   67.4460u 
  900.00000m   23.7815u   77.5567u 
  950.00000m   25.4669u   88.0154u 
    1.00000    27.0607u   98.7644u 
y
 vth0_value= 248.2501m
 u0_param=  49.3761m
 vsat_param=  94.5536k
 
   *** monte carlo  index = 5 ***
x

 volt         param      param     
             i_linear   i_sat      
    0.         41.3805p   70.4964p 
   50.00000m  215.1442p  360.3481p 
  100.00000m    1.0933n    1.8110n 
  150.00000m    5.3025n    8.6348n 
  200.00000m   23.7184n   37.6302n 
  250.00000m   94.8256n  145.8068n 
  300.00000m  333.1942n  495.3807n 
  350.00000m  990.5913n    1.4254u 
  400.00000m    2.3283u    3.3487u 
  450.00000m    4.2623u    6.4892u 
  500.00000m    6.4872u   10.8202u 
  550.00000m    8.7911u   16.2050u 
  600.00000m   11.0740u   22.5045u 
  650.00000m   13.2941u   29.6043u 
  700.00000m   15.4339u   37.4106u 
  750.00000m   17.4859u   45.8416u 
  800.00000m   19.4466u   54.8228u 
  850.00000m   21.3148u   64.2851u 
  900.00000m   23.0900u   74.1633u 
  950.00000m   24.7730u   84.3964u 
    1.00000    26.3647u   94.9265u 
y
 vth0_value= 260.3625m
 u0_param=  49.2940m
 vsat_param=  92.8499k
 
   *** monte carlo  index = 6 ***
x

 volt         param      param     
             i_linear   i_sat      
    0.        113.2845p  190.6834p 
   50.00000m  582.5121p  969.6011p 
  100.00000m    2.8906n    4.7454n 
  150.00000m   13.4290n   21.5577n 
  200.00000m   56.3900n   87.8575n 
  250.00000m  209.4615n  315.9096n 
  300.00000m  672.5308n  979.5446n 
  350.00000m    1.7551u    2.5079u 
  400.00000m    3.5479u    5.2436u 
  450.00000m    5.7770u    9.2569u 
  500.00000m    8.1663u   14.4361u 
  550.00000m   10.5704u   20.6317u 
  600.00000m   12.9261u   27.7148u 
  650.00000m   15.2066u   35.5801u 
  700.00000m   17.4005u   44.1384u 
  750.00000m   19.5023u   53.3092u 
  800.00000m   21.5094u   63.0179u 
  850.00000m   23.4207u   73.1946u 
  900.00000m   25.2359u   83.7732u 
  950.00000m   26.9557u   94.6914u 
    1.00000    28.5814u  105.8905u 
y
 vth0_value= 231.0040m
 u0_param=  50.4523m
 vsat_param=  94.2131k
 
   *** monte carlo  index = 7 ***
x

 volt         param      param     
             i_linear   i_sat      
    0.        142.1801p  238.7290p 
   50.00000m  728.4404p    1.2098n 
  100.00000m    3.5887n    5.8724n 
  150.00000m   16.4689n   26.3178n 
  200.00000m   68.0267n  105.4488n 
  250.00000m  248.0830n  372.1578n 
  300.00000m  777.1822n    1.1263u 
  350.00000m    1.9594u    2.8018u 
  400.00000m    3.8261u    5.7071u 
  450.00000m    6.0822u    9.8785u 
  500.00000m    8.4712u   15.1940u 
  550.00000m   10.8635u   21.5068u 
  600.00000m   13.2033u   28.6930u 
  650.00000m   15.4669u   36.6509u 
  700.00000m   17.6439u   45.2930u 
  750.00000m   19.7292u   54.5402u 
  800.00000m   21.7204u   64.3188u 
  850.00000m   23.6163u   74.5591u 
  900.00000m   25.4168u   85.1957u 
  950.00000m   27.1226u   96.1664u 
    1.00000    28.7347u  107.4127u 
y
 vth0_value= 223.9248m
 u0_param=  50.0209m
 vsat_param=  95.6219k
 
   *** monte carlo  index = 8 ***
x

 volt         param      param     
             i_linear   i_sat      
    0.        110.5544p  186.0597p 
   50.00000m  568.7364p  946.5013p 
  100.00000m    2.8248n    4.6373n 
  150.00000m   13.1445n   21.1038n 
  200.00000m   55.3166n   86.2065n 
  250.00000m  205.9884n  310.7746n 
  300.00000m  663.5778n  966.8700n 
  350.00000m    1.7399u    2.4856u 
  400.00000m    3.5340u    5.2168u 
  450.00000m    5.7735u    9.2369u 
  500.00000m    8.1781u   14.4358u 
  550.00000m   10.5992u   20.6632u 
  600.00000m   12.9719u   27.7887u 
  650.00000m   15.2691u   35.7064u 
  700.00000m   17.4789u   44.3258u 
  750.00000m   19.5959u   53.5659u 
  800.00000m   21.6175u   63.3514u 
  850.00000m   23.5424u   73.6116u 
  900.00000m   25.3705u   84.2797u 
  950.00000m   27.1025u   95.2928u 
    1.00000    28.7395u  106.5914u 
y
 vth0_value= 231.9527m
 u0_param=  50.8005m
 vsat_param=  96.6691k
 
   *** monte carlo  index = 9 ***
x

 volt         param      param     
             i_linear   i_sat      
    0.         37.9132p   64.6640p 
   50.00000m  197.2454p  330.4157p 
  100.00000m    1.0040n    1.6634n 
  150.00000m    4.8845n    7.9594n 
  200.00000m   21.9576n   34.8747n 
  250.00000m   88.3297n  135.9881n 
  300.00000m  312.5846n  465.4185n 
  350.00000m  938.8216n    1.3522u 
  400.00000m    2.2358u    3.2108u 
  450.00000m    4.1400u    6.2783u 
  500.00000m    6.3479u   10.5385u 
  550.00000m    8.6418u   15.8578u 
  600.00000m   10.9177u   22.0967u 
  650.00000m   13.1320u   29.1404u 
  700.00000m   15.2666u   36.8944u 
  750.00000m   17.3138u   45.2769u 
  800.00000m   19.2701u   54.2133u 
  850.00000m   21.1341u   63.6345u 
  900.00000m   22.9054u   73.4753u 
  950.00000m   24.5847u   83.6744u 
    1.00000    26.1730u   94.1740u 
y
 vth0_value= 262.8909m
 u0_param=  49.1634m
 vsat_param=  94.3949k
 
   *** monte carlo  index = 10 ***
x

 volt         param      param     
             i_linear   i_sat      
    0.         84.7202p  142.8995p 
   50.00000m  437.2760p  728.7575p 
  100.00000m    2.1867n    3.5980n 
  150.00000m   10.2969n   16.5930n 
  200.00000m   44.0612n   68.9736n 
  250.00000m  167.1974n  253.4605n 
  300.00000m  551.8426n  808.0145n 
  350.00000m    1.4982u    2.1408u 
  400.00000m    3.1589u    4.6232u 
  450.00000m    5.3024u    8.3685u 
  500.00000m    7.6381u   13.2853u 
  550.00000m   10.0040u   19.2265u 
  600.00000m   12.3281u   26.0608u 
  650.00000m   14.5805u   33.6815u 
  700.00000m   16.7483u   41.9984u 
  750.00000m   18.8257u   50.9314u 
  800.00000m   20.8097u   60.4062u 
  850.00000m   22.6993u   70.3532u 
  900.00000m   24.4942u   80.7067u 
  950.00000m   26.1951u   91.4048u 
    1.00000    27.8031u  102.3891u 
y
 vth0_value= 239.3268m
 u0_param=  49.8554m
 vsat_param=  95.5493k
 
   *** monte carlo  index = 11 ***
x

 volt         param      param     
             i_linear   i_sat      
    0.         46.7450p   79.4812p 
   50.00000m  242.7943p  406.3726p 
  100.00000m    1.2309n    2.0371n 
  150.00000m    5.9429n    9.6633n 
  200.00000m   26.3962n   41.7929n 
  250.00000m  104.6259n  160.5187n 
  300.00000m  363.9802n  539.8247n 
  350.00000m    1.0667u    1.5325u 
  400.00000m    2.4618u    3.5485u 
  450.00000m    4.4372u    6.7938u 
  500.00000m    6.6861u   11.2284u 
  550.00000m    9.0047u   16.7124u 
  600.00000m   11.2983u   23.1075u 
  650.00000m   13.5272u   30.3004u 
  700.00000m   15.6750u   38.1978u 
  750.00000m   17.7343u   46.7181u 
  800.00000m   19.7019u   55.7868u 
  850.00000m   21.5764u   65.3346u 
  900.00000m   23.3576u   75.2962u 
  950.00000m   25.0461u   85.6103u 
    1.00000    26.6429u   96.2192u 
y
 vth0_value= 256.8380m
 u0_param=  49.4653m
 vsat_param=  92.8637k
 
   *** monte carlo  index = 12 ***
x

 volt         param      param     
             i_linear   i_sat      
    0.         85.0672p  143.5107p 
   50.00000m  439.0682p  731.8963p 
  100.00000m    2.1956n    3.6135n 
  150.00000m   10.3390n   16.6645n 
  200.00000m   44.2410n   69.2690n 
  250.00000m  167.8752n  254.5340n 
  300.00000m  554.0497n  811.3697n 
  350.00000m    1.5041u    2.1495u 
  400.00000m    3.1712u    4.6413u 
  450.00000m    5.3228u    8.4005u 
  500.00000m    7.6674u   13.3349u 
  550.00000m   10.0422u   19.2965u 
  600.00000m   12.3750u   26.1534u 
  650.00000m   14.6359u   33.7986u 
  700.00000m   16.8118u   42.1416u 
  750.00000m   18.8968u   51.1017u 
  800.00000m   20.8882u   60.6047u 
  850.00000m   22.7848u   70.5805u 
  900.00000m   24.5863u   80.9635u 
  950.00000m   26.2934u   91.6917u 
    1.00000    27.9073u  102.7063u 
y
 vth0_value= 239.3250m
 u0_param=  50.0491m
 vsat_param=  95.0964k
 
   *** monte carlo  index = 13 ***
x

 volt         param      param     
             i_linear   i_sat      
    0.         72.2484p  122.1025p 
   50.00000m  373.6792p  623.5803p 
  100.00000m    1.8768n    3.0938n 
  150.00000m    8.9064n   14.3929n 
  200.00000m   38.5415n   60.5403n 
  250.00000m  148.1425n  225.3833n 
  300.00000m  496.8187n  730.1914n 
  350.00000m    1.3805u    1.9746u 
  400.00000m    2.9878u    4.3503u 
  450.00000m    5.1149u    7.9995u 
  500.00000m    7.4592u   12.8424u 
  550.00000m    9.8444u   18.7311u 
  600.00000m   12.1917u   25.5301u 
  650.00000m   14.4679u   33.1293u 
  700.00000m   16.6591u   41.4367u 
  750.00000m   18.7590u   50.3704u 
  800.00000m   20.7647u   59.8551u 
  850.00000m   22.6750u   69.8203u 
  900.00000m   24.4896u   80.1998u 
  950.00000m   26.2091u   90.9308u 
    1.00000    27.8349u  101.9543u 
y
 vth0_value= 244.4336m
 u0_param=  50.4070m
 vsat_param=  95.9888k
 
   *** monte carlo  index = 14 ***
x

 volt         param      param     
             i_linear   i_sat      
    0.         54.4849p   92.3831p 
   50.00000m  282.5547p  472.1979p 
  100.00000m    1.4275n    2.3580n 
  150.00000m    6.8472n   11.1031n 
  200.00000m   30.1090n   47.5063n 
  250.00000m  117.9208n  180.2607n 
  300.00000m  404.5243n  597.6431n 
  350.00000m    1.1617u    1.6652u 
  400.00000m    2.6144u    3.7813u 
  450.00000m    4.6153u    7.1246u 
  500.00000m    6.8625u   11.6401u 
  550.00000m    9.1668u   17.1875u 
  600.00000m   11.4415u   23.6320u 
  650.00000m   13.6503u   30.8639u 
  700.00000m   15.7779u   38.7922u 
  750.00000m   17.8177u   47.3367u 
  800.00000m   19.7665u   56.4238u 
  850.00000m   21.6230u   65.9851u 
  900.00000m   23.3870u   75.9557u 
  950.00000m   25.0591u   86.2749u 
    1.00000    26.6403u   96.8852u 
y
 vth0_value= 251.9536m
 u0_param=  48.9755m
 vsat_param=  93.6869k
 
   *** monte carlo  index = 15 ***
x

 volt         param      param     
             i_linear   i_sat      
    0.         35.4379p   60.5032p 
   50.00000m  184.4162p  308.9600p 
  100.00000m  939.4678p    1.5566n 
  150.00000m    4.5777n    7.4615n 
  200.00000m   20.6301n   32.7831n 
  250.00000m   83.2518n  128.2473n 
  300.00000m  295.6832n  440.5650n 
  350.00000m  892.6488n    1.2864u 
  400.00000m    2.1403u    3.0711u 
  450.00000m    3.9869u    6.0333u 
  500.00000m    6.1373u   10.1624u 
  550.00000m    8.3756u   15.3293u 
  600.00000m   10.5982u   21.3976u 
  650.00000m   12.7615u   28.2547u 
  700.00000m   14.8474u   35.8080u 
  750.00000m   16.8483u   43.9773u 
  800.00000m   18.7605u   52.6899u 
  850.00000m   20.5828u   61.8780u 
  900.00000m   22.3147u   71.4778u 
  950.00000m   23.9567u   81.4294u 
    1.00000    25.5100u   91.6763u 
y
 vth0_value= 264.1898m
 u0_param=  48.0547m
 vsat_param=  92.8876k
 
   *** monte carlo  index = 16 ***
x

 volt         param      param     
             i_linear   i_sat      
    0.         60.0174p  101.6325p 
   50.00000m  310.9613p  519.3620p 
  100.00000m    1.5678n    2.5877n 
  150.00000m    7.4920n   12.1332n 
  200.00000m   32.7582n   51.5999n 
  250.00000m  127.4398n  194.4670n 
  300.00000m  433.6993n  639.5094n 
  350.00000m    1.2311u    1.7630u 
  400.00000m    2.7320u    3.9601u 
  450.00000m    4.7690u    7.3957u 
  500.00000m    7.0408u   12.0063u 
  550.00000m    9.3636u   17.6491u 
  600.00000m   11.6538u   24.1898u 
  650.00000m   13.8767u   31.5192u 
  700.00000m   16.0174u   39.5461u 
  750.00000m   18.0696u   48.1901u 
  800.00000m   20.0300u   57.3776u 
  850.00000m   21.8975u   67.0394u 
  900.00000m   23.6718u   77.1105u 
  950.00000m   25.3535u   87.5298u 
    1.00000    26.9437u   98.2394u 
y
 vth0_value= 249.2536m
 u0_param=  49.2628m
 vsat_param=  94.3274k
 
   *** monte carlo  index = 17 ***
x

 volt         param      param     
             i_linear   i_sat      
    0.         91.8313p  154.8833p 
   50.00000m  473.5516p  789.4013p 
  100.00000m    2.3636n    3.8891n 
  150.00000m   11.0929n   17.8687n 
  200.00000m   47.2420n   73.9033n 
  250.00000m  178.2916n  270.0559n 
  300.00000m  584.3574n  854.7897n 
  350.00000m    1.5706u    2.2446u 
  400.00000m    3.2755u    4.8056u 
  450.00000m    5.4543u    8.6400u 
  500.00000m    7.8179u   13.6491u 
  550.00000m   10.2078u   19.6837u 
  600.00000m   12.5539u   26.6119u 
  650.00000m   14.8268u   34.3267u 
  700.00000m   17.0141u   42.7376u 
  750.00000m   19.1100u   51.7637u 
  800.00000m   21.1116u   61.3305u 
  850.00000m   23.0178u   71.3681u 
  900.00000m   24.8285u   81.8105u 
  950.00000m   26.5442u   92.5957u 
    1.00000    28.1662u  103.6651u 
y
 vth0_value= 237.2081m
 u0_param=  50.3203m
 vsat_param=  93.6097k
 
   *** monte carlo  index = 18 ***
x

 volt         param      param     
             i_linear   i_sat      
    0.         25.7302p   44.2696p 
   50.00000m  134.1715p  225.3951p 
  100.00000m  687.5190p    1.1423n 
  150.00000m    3.3883n    5.5471n 
  200.00000m   15.5579n   24.8754n 
  250.00000m   64.3077n   99.7381n 
  300.00000m  234.6577n  352.2000n 
  350.00000m  735.5410n    1.0664u 
  400.00000m    1.8555u    2.6536u 
  450.00000m    3.6241u    5.4047u 
  500.00000m    5.7584u    9.3510u 
  550.00000m    8.0131u   14.3728u 
  600.00000m   10.2651u   20.3283u 
  650.00000m   12.4619u   27.0981u 
  700.00000m   14.5819u   34.5849u 
  750.00000m   16.6161u   42.7057u 
  800.00000m   18.5606u   51.3856u 
  850.00000m   20.4136u   60.5553u 
  900.00000m   22.1750u   70.1500u 
  950.00000m   23.8452u   80.1086u 
    1.00000    25.4252u   90.3735u 
y
 vth0_value= 274.2588m
 u0_param=  48.8811m
 vsat_param=  93.6160k
 
   *** monte carlo  index = 19 ***
x

 volt         param      param     
             i_linear   i_sat      
    0.         92.9571p  156.5725p 
   50.00000m  479.1051p  797.5605p 
  100.00000m    2.3889n    3.9246n 
  150.00000m   11.1911n   17.9954n 
  200.00000m   47.5401n   74.2348n 
  250.00000m  178.9213n  270.5387n 
  300.00000m  584.4198n  853.5129n 
  350.00000m    1.5630u    2.2322u 
  400.00000m    3.2416u    4.7609u 
  450.00000m    5.3759u    8.5356u 
  500.00000m    7.6861u   13.4593u 
  550.00000m   10.0200u   19.3875u 
  600.00000m   12.3105u   26.1927u 
  650.00000m   14.5296u   33.7714u 
  700.00000m   16.6651u   42.0355u 
  750.00000m   18.7115u   50.9064u 
  800.00000m   20.6660u   60.3110u 
  850.00000m   22.5275u   70.1809u 
  900.00000m   24.2958u   80.4511u 
  950.00000m   25.9713u   91.0607u 
    1.00000    27.5554u  101.9517u 
y
 vth0_value= 236.0679m
 u0_param=  49.0915m
 vsat_param=  95.5791k
 
   *** monte carlo  index = 20 ***
x

 volt         param      param     
             i_linear   i_sat      
    0.         32.9979p   56.4402p 
   50.00000m  171.8316p  288.1343p 
  100.00000m  876.8119p    1.4543n 
  150.00000m    4.2859n    6.9962n 
  200.00000m   19.4150n   30.9111n 
  250.00000m   78.8565n  121.7245n 
  300.00000m  282.1247n  421.2718n 
  350.00000m  860.5121n    1.2422u 
  400.00000m    2.0916u    2.9982u 
  450.00000m    3.9446u    5.9453u 
  500.00000m    6.1220u   10.0831u 
  550.00000m    8.3964u   15.2824u 
  600.00000m   10.6581u   21.4031u 
  650.00000m   12.8605u   28.3288u 
  700.00000m   14.9844u   35.9644u 
  750.00000m   17.0217u   44.2280u 
  800.00000m   18.9688u   53.0450u 
  850.00000m   20.8241u   62.3464u 
  900.00000m   22.5874u   72.0675u 
  950.00000m   24.2591u   82.1470u 
    1.00000    25.8405u   92.5275u 
y
 vth0_value= 266.8860m
 u0_param=  48.9370m
 vsat_param=  93.6474k
 
   *** monte carlo  index = 21 ***
x

 volt         param      param     
             i_linear   i_sat      
    0.         83.9821p  141.7302p 
   50.00000m  433.5289p  722.8810p 
  100.00000m    2.1686n    3.5702n 
  150.00000m   10.2170n   16.4743n 
  200.00000m   43.7512n   68.5314n 
  250.00000m  166.1548n  252.0307n 
  300.00000m  548.9345n  804.1980n 
  350.00000m    1.4925u    2.1332u 
  400.00000m    3.1519u    4.6117u 
  450.00000m    5.2972u    8.3545u 
  500.00000m    7.6366u   13.2701u 
  550.00000m   10.0070u   19.2108u 
  600.00000m   12.3357u   26.0445u 
  650.00000m   14.5927u   33.6641u 
  700.00000m   16.7650u   41.9793u 
  750.00000m   18.8467u   50.9095u 
  800.00000m   20.8349u   60.3806u 
  850.00000m   22.7285u   70.3229u 
  900.00000m   24.5272u   80.6707u 
  950.00000m   26.2317u   91.3624u 
    1.00000    27.8431u  102.3394u 
y
 vth0_value= 239.6633m
 u0_param=  49.9728m
 vsat_param=  93.9872k
 
   *** monte carlo  index = 22 ***
x

 volt         param      param     
             i_linear   i_sat      
    0.         69.5713p  117.6237p 
   50.00000m  359.9222p  600.7192p 
  100.00000m    1.8087n    2.9822n 
  150.00000m    8.5921n   13.8896n 
  200.00000m   37.2373n   58.5163n 
  250.00000m  143.3785n  218.2328n 
  300.00000m  481.8689n  708.5595n 
  350.00000m    1.3431u    1.9215u 
  400.00000m    2.9174u    4.2449u 
  450.00000m    5.0083u    7.8228u 
  500.00000m    7.3166u   12.5786u 
  550.00000m    9.6670u   18.3666u 
  600.00000m   11.9808u   25.0531u 
  650.00000m   14.2249u   32.5294u 
  700.00000m   16.3855u   40.7045u 
  750.00000m   18.4563u   49.4976u 
  800.00000m   20.4344u   58.8348u 
  850.00000m   22.3185u   68.6463u 
  900.00000m   24.1084u   78.8669u 
  950.00000m   25.8047u   89.4348u 
    1.00000    27.4086u  100.2918u 
y
 vth0_value= 245.1257m
 u0_param=  49.7099m
 vsat_param=  94.4353k
 
   *** monte carlo  index = 23 ***
x

 volt         param      param     
             i_linear   i_sat      
    0.         58.2569p   98.7643p 
   50.00000m  301.9941p  504.8845p 
  100.00000m    1.5242n    2.5186n 
  150.00000m    7.2981n   11.8356n 
  200.00000m   32.0041n   50.4911n 
  250.00000m  124.9327n  190.9379n 
  300.00000m  426.8767n  630.4201n 
  350.00000m    1.2188u    1.7470u 
  400.00000m    2.7240u    3.9448u 
  450.00000m    4.7823u    7.3981u 
  500.00000m    7.0858u   12.0454u 
  550.00000m    9.4444u   17.7414u 
  600.00000m   11.7712u   24.3485u 
  650.00000m   14.0297u   31.7547u 
  700.00000m   16.2050u   39.8669u 
  750.00000m   18.2901u   48.6033u 
  800.00000m   20.2820u   57.8890u 
  850.00000m   22.1794u   67.6539u 
  900.00000m   23.9821u   77.8322u 
  950.00000m   25.6906u   88.3621u 
    1.00000    27.3062u   99.1850u 
y
 vth0_value= 250.6569m
 u0_param=  50.0791m
 vsat_param=  93.2316k
 
   *** monte carlo  index = 24 ***
x

 volt         param      param     
             i_linear   i_sat      
    0.         53.9025p   91.3913p 
   50.00000m  279.5449p  467.1001p 
  100.00000m    1.4124n    2.3327n 
  150.00000m    6.7762n   10.9867n 
  200.00000m   29.8056n   47.0230n 
  250.00000m  116.7737n  178.4934n 
  300.00000m  400.7636n  592.0599n 
  350.00000m    1.1517u    1.6507u 
  400.00000m    2.5937u    3.7507u 
  450.00000m    4.5815u    7.0706u 
  500.00000m    6.8150u   11.5565u 
  550.00000m    9.1055u   17.0690u 
  600.00000m   11.3668u   23.4743u 
  650.00000m   13.5626u   30.6633u 
  700.00000m   15.6779u   38.5453u 
  750.00000m   17.7059u   47.0407u 
  800.00000m   19.6436u   56.0764u 
  850.00000m   21.4895u   65.5841u 
  900.00000m   23.2435u   75.4995u 
  950.00000m   24.9060u   85.7619u 
    1.00000    26.4783u   96.3141u 
y
 vth0_value= 252.0910m
 u0_param=  48.6888m
 vsat_param=  93.7968k
 
   *** monte carlo  index = 25 ***
x

 volt         param      param     
             i_linear   i_sat      
    0.        133.0093p  223.7505p 
   50.00000m  682.6350p    1.1359n 
  100.00000m    3.3744n    5.5353n 
  150.00000m   15.5736n   24.9627n 
  200.00000m   64.8127n  100.7902n 
  250.00000m  238.3291n  358.6830n 
  300.00000m  754.9642n    1.0973u 
  350.00000m    1.9332u    2.7643u 
  400.00000m    3.8337u    5.6946u 
  450.00000m    6.1592u    9.9396u 
  500.00000m    8.6345u   15.3757u 
  550.00000m   11.1181u   21.8486u 
  600.00000m   13.5486u   29.2267u 
  650.00000m   15.9003u   37.4029u 
  700.00000m   18.1618u   46.2855u 
  750.00000m   20.3279u   55.7919u 
  800.00000m   22.3960u   65.8456u 
  850.00000m   24.3649u   76.3745u 
  900.00000m   26.2346u   87.3111u 
  950.00000m   28.0057u   98.5915u 
    1.00000    29.6796u  110.1553u 
y
 vth0_value= 227.1532m
 u0_param=  52.0176m
 vsat_param=  95.0073k
 
   *** monte carlo  index = 26 ***
x

 volt         param      param     
             i_linear   i_sat      
    0.         42.5232p   72.3714p 
   50.00000m  221.0125p  369.9073p 
  100.00000m    1.1223n    1.8575n 
  150.00000m    5.4353n    8.8421n 
  200.00000m   24.2580n   38.4414n 
  250.00000m   96.7200n  148.5431n 
  300.00000m  338.8070n  503.1248n 
  350.00000m    1.0029u    1.4418u 
  400.00000m    2.3438u    3.3726u 
  450.00000m    4.2694u    6.5120u 
  500.00000m    6.4772u   10.8303u 
  550.00000m    8.7602u   16.1920u 
  600.00000m   11.0213u   22.4602u 
  650.00000m   13.2197u   29.5225u 
  700.00000m   15.3385u   37.2862u 
  750.00000m   17.3704u   45.6707u 
  800.00000m   19.3120u   54.6024u 
  850.00000m   21.1619u   64.0124u 
  900.00000m   22.9198u   73.8365u 
  950.00000m   24.5862u   84.0136u 
    1.00000    26.1624u   94.4865u 
y
 vth0_value= 259.2312m
 u0_param=  48.7965m
 vsat_param=  93.7569k
 
   *** monte carlo  index = 27 ***
x

 volt         param      param     
             i_linear   i_sat      
    0.         70.9629p  120.0504p 
   50.00000m  367.1235p  613.2101p 
  100.00000m    1.8448n    3.0442n 
  150.00000m    8.7632n   14.1772n 
  200.00000m   37.9745n   59.7192n 
  250.00000m  146.1903n  222.6619n 
  300.00000m  491.1702n  722.6431n 
  350.00000m    1.3684u    1.9586u 
  400.00000m    2.9712u    4.3245u 
  450.00000m    5.0994u    7.9652u 
  500.00000m    7.4485u   12.8016u 
  550.00000m    9.8402u   18.6846u 
  600.00000m   12.1943u   25.4775u 
  650.00000m   14.4775u   33.0696u 
  700.00000m   16.6755u   41.3681u 
  750.00000m   18.7820u   50.2911u 
  800.00000m   20.7940u   59.7632u 
  850.00000m   22.7104u   69.7140u 
  900.00000m   24.5308u   80.0772u 
  950.00000m   26.2560u   90.7904u 
    1.00000    27.8871u  101.7948u 
y
 vth0_value= 245.0852m
 u0_param=  50.5997m
 vsat_param=  93.0873k
 
   *** monte carlo  index = 28 ***
x

 volt         param      param     
             i_linear   i_sat      
    0.        138.1864p  232.1397p 
   50.00000m  708.3669p    1.1770n 
  100.00000m    3.4936n    5.7205n 
  150.00000m   16.0611n   25.6876n 
  200.00000m   66.4996n  103.1739n 
  250.00000m  243.1521n  365.0942n 
  300.00000m  764.4449n    1.1088u 
  350.00000m    1.9368u    2.7693u 
  400.00000m    3.8005u    5.6611u 
  450.00000m    6.0616u    9.8250u 
  500.00000m    8.4597u   15.1394u 
  550.00000m   10.8628u   21.4567u 
  600.00000m   13.2136u   28.6512u 
  650.00000m   15.4880u   36.6205u 
  700.00000m   17.6755u   45.2766u 
  750.00000m   19.7709u   54.5397u 
  800.00000m   21.7717u   64.3358u 
  850.00000m   23.6767u   74.5951u 
  900.00000m   25.4859u   85.2517u 
  950.00000m   27.1999u   96.2435u 
    1.00000    28.8199u  107.5117u 
y
 vth0_value= 224.9384m
 u0_param=  50.2732m
 vsat_param=  95.1154k
 
   *** monte carlo  index = 29 ***
x

 volt         param      param     
             i_linear   i_sat      
    0.         33.7803p   57.7228p 
   50.00000m  175.8492p  294.6718p 
  100.00000m  896.6264p    1.4860n 
  150.00000m    4.3764n    7.1370n 
  200.00000m   19.7780n   31.4522n 
  250.00000m   80.0926n  123.4827n 
  300.00000m  285.5972n  425.9320n 
  350.00000m  867.0700n    1.2504u 
  400.00000m    2.0944u    3.0033u 
  450.00000m    3.9276u    5.9306u 
  500.00000m    6.0726u   10.0276u 
  550.00000m    8.3096u   15.1668u 
  600.00000m   10.5326u   21.2113u 
  650.00000m   12.6970u   28.0476u 
  700.00000m   14.7842u   35.5829u 
  750.00000m   16.7864u   43.7368u 
  800.00000m   18.6999u   52.4362u 
  850.00000m   20.5234u   61.6132u 
  900.00000m   22.2566u   71.2041u 
  950.00000m   23.8998u   81.1487u 
    1.00000    25.4542u   91.3904u 
y
 vth0_value= 265.6367m
 u0_param=  48.0817m
 vsat_param=  93.4595k
 
   *** monte carlo  index = 30 ***
x

 volt         param      param     
             i_linear   i_sat      
    0.         35.8253p   61.1387p 
   50.00000m  186.4545p  312.2979p 
  100.00000m  950.0438p    1.5739n 
  150.00000m    4.6309n    7.5475n 
  200.00000m   20.8827n   33.1826n 
  250.00000m   84.3352n  129.9134n 
  300.00000m  299.7970n  446.7071n 
  350.00000m  906.2138n    1.3059u 
  400.00000m    2.1763u    3.1222u 
  450.00000m    4.0597u    6.1411u 
  500.00000m    6.2549u   10.3533u 
  550.00000m    8.5403u   15.6277u 
  600.00000m   10.8099u   21.8249u 
  650.00000m   13.0187u   28.8297u 
  700.00000m   15.1483u   36.5475u 
  750.00000m   17.1909u   44.8963u 
  800.00000m   19.1427u   53.8016u 
  850.00000m   21.0025u   63.1942u 
  900.00000m   22.7699u   73.0089u 
  950.00000m   24.4454u   83.1841u 
    1.00000    26.0301u   93.6620u 
y
 vth0_value= 264.4992m
 u0_param=  49.0408m
 vsat_param=  96.2589k
 
   *** monte carlo  index = 31 ***
x

 volt         param      param     
             i_linear   i_sat      
    0.        140.5014p  236.1474p 
   50.00000m  720.2705p    1.1975n 
  100.00000m    3.5525n    5.8205n 
  150.00000m   16.3343n   26.1403n 
  200.00000m   67.6403n  105.0042n 
  250.00000m  247.3495n  371.5876n 
  300.00000m  777.7155n    1.1285u 
  350.00000m    1.9708u    2.8186u 
  400.00000m    3.8681u    5.7616u 
  450.00000m    6.1704u    9.9985u 
  500.00000m    8.6124u   15.4046u 
  550.00000m   11.0593u   21.8288u 
  600.00000m   13.4528u   29.1431u 
  650.00000m   15.7683u   37.2427u 
  700.00000m   17.9951u   46.0379u 
  750.00000m   20.1280u   55.4476u 
  800.00000m   22.1645u   65.3965u 
  850.00000m   24.1034u   75.8137u 
  900.00000m   25.9446u   86.6323u 
  950.00000m   27.6888u   97.7895u 
    1.00000    29.3373u  109.2256u 
y
 vth0_value= 225.0124m
 u0_param=  51.2007m
 vsat_param=  94.8074k
 
   *** monte carlo  index = 32 ***
x

 volt         param      param     
             i_linear   i_sat      
    0.         61.0773p  103.3968p 
   50.00000m  316.3662p  528.2836p 
  100.00000m    1.5941n    2.6304n 
  150.00000m    7.6098n   12.3188n 
  200.00000m   33.2201n   52.3005n 
  250.00000m  128.9972n  196.7371n 
  300.00000m  438.0238n  645.5150n 
  350.00000m    1.2394u    1.7744u 
  400.00000m    2.7397u    3.9738u 
  450.00000m    4.7680u    7.4036u 
  500.00000m    7.0258u   11.9986u 
  550.00000m    9.3327u   17.6169u 
  600.00000m   11.6067u   24.1257u 
  650.00000m   13.8135u   31.4168u 
  700.00000m   15.9389u   39.3999u 
  750.00000m   17.9763u   47.9955u 
  800.00000m   19.9228u   57.1302u 
  850.00000m   21.7770u   66.7357u 
  900.00000m   23.5387u   76.7474u 
  950.00000m   25.2085u   87.1046u 
    1.00000    26.7874u   97.7497u 
y
 vth0_value= 248.5045m
 u0_param=  48.9106m
 vsat_param=  93.7094k
 
   *** monte carlo  index = 33 ***
x

 volt         param      param     
             i_linear   i_sat      
    0.         68.9695p  116.6266p 
   50.00000m  356.8655p  595.7019p 
  100.00000m    1.7939n    2.9584n 
  150.00000m    8.5271n   13.7880n 
  200.00000m   36.9876n   58.1422n 
  250.00000m  142.5608n  217.0584n 
  300.00000m  479.7088n  705.6200n 
  350.00000m    1.3395u    1.9165u 
  400.00000m    2.9156u    4.2407u 
  450.00000m    5.0131u    7.8248u 
  500.00000m    7.3310u   12.5930u 
  550.00000m    9.6920u   18.3990u 
  600.00000m   12.0164u   25.1081u 
  650.00000m   14.2709u   32.6109u 
  700.00000m   16.4416u   40.8158u 
  750.00000m   18.5220u   49.6418u 
  800.00000m   20.5092u   59.0144u 
  850.00000m   22.4020u   68.8636u 
  900.00000m   24.2001u   79.1237u 
  950.00000m   25.9041u   89.7329u 
    1.00000    27.5153u  100.6325u 
y
 vth0_value= 245.5313m
 u0_param=  49.9468m
 vsat_param=  94.7155k
 
   *** monte carlo  index = 34 ***
x

 volt         param      param     
             i_linear   i_sat      
    0.         42.3173p   71.9999p 
   50.00000m  219.9492p  367.9986p 
  100.00000m    1.1170n    1.8481n 
  150.00000m    5.4104n    8.7988n 
  200.00000m   24.1529n   38.2635n 
  250.00000m   96.3314n  147.9073n 
  300.00000m  337.5800n  501.1973n 
  350.00000m  999.8183n    1.4372u 
  400.00000m    2.3383u    3.3639u 
  450.00000m    4.2618u    6.4990u 
  500.00000m    6.4679u   10.8135u 
  550.00000m    8.7495u   16.1726u 
  600.00000m   11.0093u   22.4395u 
  650.00000m   13.2065u   29.5019u 
  700.00000m   15.3241u   37.2672u 
  750.00000m   17.3548u   45.6547u 
  800.00000m   19.2953u   54.5907u 
  850.00000m   21.1440u   64.0065u 
  900.00000m   22.9009u   73.8373u 
  950.00000m   24.5663u   84.0223u 
    1.00000    26.1415u   94.5039u 
y
 vth0_value= 259.3511m
 u0_param=  48.7525m
 vsat_param=  95.2454k
 
   *** monte carlo  index = 35 ***
x

 volt         param      param     
             i_linear   i_sat      
    0.        177.8094p  298.2130p 
   50.00000m  907.7483p    1.5060n 
  100.00000m    4.4411n    7.2525n 
  150.00000m   20.1472n   32.0942n 
  200.00000m   81.9872n  126.6302n 
  250.00000m  294.0068n  439.2841n 
  300.00000m  899.8470n    1.2996u 
  350.00000m    2.1978u    3.1496u 
  400.00000m    4.1654u    6.2694u 
  450.00000m    6.4897u   10.6665u 
  500.00000m    8.9274u   16.2075u 
  550.00000m   11.3592u   22.7453u 
  600.00000m   13.7339u   30.1566u 
  650.00000m   16.0299u   38.3404u 
  700.00000m   18.2373u   47.2089u 
  750.00000m   20.3514u   56.6825u 
  800.00000m   22.3697u   66.6867u 
  850.00000m   24.2912u   77.1513u 
  900.00000m   26.1159u   88.0101u 
  950.00000m   27.8442u   99.2005u 
    1.00000    29.4775u  110.6634u 
y
 vth0_value= 217.6458m
 u0_param=  50.7204m
 vsat_param=  95.1199k
 
   *** monte carlo  index = 36 ***
x

 volt         param      param     
             i_linear   i_sat      
    0.         41.3284p   70.3906p 
   50.00000m  214.8702p  359.7937p 
  100.00000m    1.0919n    1.8081n 
  150.00000m    5.2953n    8.6208n 
  200.00000m   23.6849n   37.5667n 
  250.00000m   94.6851n  145.5527n 
  300.00000m  332.6821n  494.5057n 
  350.00000m  989.0012n    1.4228u 
  400.00000m    2.3243u    3.3427u 
  450.00000m    4.2544u    6.4776u 
  500.00000m    6.4745u   10.8012u 
  550.00000m    8.7733u   16.1775u 
  600.00000m   11.0513u   22.4678u 
  650.00000m   13.2664u   29.5582u 
  700.00000m   15.4015u   37.3549u 
  750.00000m   17.4490u   45.7765u 
  800.00000m   19.4054u   54.7487u 
  850.00000m   21.2695u   64.2023u 
  900.00000m   23.0408u   74.0723u 
  950.00000m   24.7200u   84.2974u 
    1.00000    26.3082u   94.8201u 
y
 vth0_value= 260.3254m
 u0_param=  49.1741m
 vsat_param=  93.6642k
 
   *** monte carlo  index = 37 ***
x

 volt         param      param     
             i_linear   i_sat      
    0.         41.6726p   70.9829p 
   50.00000m  216.6676p  362.8756p 
  100.00000m    1.1011n    1.8238n 
  150.00000m    5.3403n    8.6960n 
  200.00000m   23.8886n   37.8991n 
  250.00000m   95.5119n  146.8581n 
  300.00000m  335.6310n  498.9944n 
  350.00000m  997.9439n    1.4359u 
  400.00000m    2.3459u    3.3739u 
  450.00000m    4.2948u    6.5389u 
  500.00000m    6.5370u   10.9039u 
  550.00000m    8.8588u   16.3316u 
  600.00000m   11.1593u   22.6815u 
  650.00000m   13.3964u   29.8386u 
  700.00000m   15.5525u   37.7081u 
  750.00000m   17.6201u   46.2077u 
  800.00000m   19.5956u   55.2623u 
  850.00000m   21.4778u   64.8022u 
  900.00000m   23.2663u   74.7618u 
  950.00000m   24.9616u   85.0793u 
    1.00000    26.5651u   95.6965u 
y
 vth0_value= 260.3857m
 u0_param=  49.6621m
 vsat_param=  93.8986k
 
   *** monte carlo  index = 38 ***
x

 volt         param      param     
             i_linear   i_sat      
    0.         54.7882p   92.9461p 
   50.00000m  284.1860p  475.2185p 
  100.00000m    1.4363n    2.3742n 
  150.00000m    6.8942n   11.1883n 
  200.00000m   30.3477n   47.9238n 
  250.00000m  119.0006n  182.0619n 
  300.00000m  408.7925n  604.4229n 
  350.00000m    1.1763u    1.6870u 
  400.00000m    2.6539u    3.8376u 
  450.00000m    4.6947u    7.2406u 
  500.00000m    6.9896u   11.8406u 
  550.00000m    9.3439u   17.4934u 
  600.00000m   11.6681u   24.0609u 
  650.00000m   13.9249u   31.4303u 
  700.00000m   16.0987u   39.5082u 
  750.00000m   18.1825u   48.2125u 
  800.00000m   20.1733u   57.4683u 
  850.00000m   22.0696u   67.2055u 
  900.00000m   23.8713u   77.3581u 
  950.00000m   25.5790u   87.8641u 
    1.00000    27.1938u   98.6652u 
y
 vth0_value= 252.4674m
 u0_param=  50.0527m
 vsat_param=  93.8660k
 
   *** monte carlo  index = 39 ***
x

 volt         param      param     
             i_linear   i_sat      
    0.         29.4325p   50.4352p 
   50.00000m  153.3373p  257.1385p 
  100.00000m  783.6362p    1.2997n 
  150.00000m    3.8419n    6.2739n 
  200.00000m   17.4893n   27.8692n 
  250.00000m   71.4836n  110.4617n 
  300.00000m  257.5871n  385.1315n 
  350.00000m  793.6171n    1.1468u 
  400.00000m    1.9552u    2.7990u 
  450.00000m    3.7334u    5.6048u 
  500.00000m    5.8421u    9.5752u 
  550.00000m    8.0535u   14.5883u 
  600.00000m   10.2561u   20.5074u 
  650.00000m   12.4024u   27.2183u 
  700.00000m   14.4731u   34.6276u 
  750.00000m   16.4597u   42.6552u 
  800.00000m   18.3587u   51.2283u 
  850.00000m   20.1684u   60.2793u 
  900.00000m   21.8886u   69.7448u 
  950.00000m   23.5198u   79.5650u 
    1.00000    25.0629u   89.6836u 
y
 vth0_value= 269.5016m
 u0_param=  47.7209m
 vsat_param=  93.5475k
 
   *** monte carlo  index = 40 ***
x

 volt         param      param     
             i_linear   i_sat      
    0.         76.4223p  128.9433p 
   50.00000m  394.8176p  657.8785p 
  100.00000m    1.9783n    3.2553n 
  150.00000m    9.3494n   15.0735n 
  200.00000m   40.2147n   63.0019n 
  250.00000m  153.5150n  232.9380n 
  300.00000m  510.5274n  748.3563n 
  350.00000m    1.4013u    2.0022u 
  400.00000m    2.9906u    4.3653u 
  450.00000m    5.0654u    7.9617u 
  500.00000m    7.3378u   12.7089u 
  550.00000m    9.6446u   18.4645u 
  600.00000m   11.9128u   25.0998u 
  650.00000m   14.1119u   32.5099u 
  700.00000m   16.2289u   40.6067u 
  750.00000m   18.2579u   49.3115u 
  800.00000m   20.1961u   58.5517u 
  850.00000m   22.0422u   68.2591u 
  900.00000m   23.7960u   78.3693u 
  950.00000m   25.4581u   88.8215u 
    1.00000    27.0296u   99.5582u 
y
 vth0_value= 241.6579m
 u0_param=  48.6752m
 vsat_param=  95.8337k
 
   *** monte carlo  index = 41 ***
x

 volt         param      param     
             i_linear   i_sat      
    0.         44.0204p   74.9118p 
   50.00000m  228.7466p  382.9570p 
  100.00000m    1.1610n    1.9220n 
  150.00000m    5.6168n    9.1386n 
  200.00000m   25.0285n   39.6615n 
  250.00000m   99.5957n  152.9452n 
  300.00000m  348.0698n  516.7737n 
  350.00000m    1.0268u    1.4761u 
  400.00000m    2.3896u    3.4408u 
  450.00000m    4.3375u    6.6239u 
  500.00000m    6.5655u   10.9918u 
  550.00000m    8.8671u   16.4068u 
  600.00000m   11.1458u   22.7307u 
  650.00000m   13.3609u   29.8505u 
  700.00000m   15.4956u   37.6728u 
  750.00000m   17.5425u   46.1165u 
  800.00000m   19.4985u   55.1074u 
  850.00000m   21.3620u   64.5766u 
  900.00000m   23.1328u   74.4590u 
  950.00000m   24.8115u   84.6938u 
    1.00000    26.3992u   95.2234u 
y
 vth0_value= 258.4408m
 u0_param=  49.1736m
 vsat_param=  92.6837k
 
   *** monte carlo  index = 42 ***
x

 volt         param      param     
             i_linear   i_sat      
    0.         68.0317p  115.1108p 
   50.00000m  352.0822p  588.0382p 
  100.00000m    1.7706n    2.9217n 
  150.00000m    8.4225n   13.6284n 
  200.00000m   36.5738n   57.5342n 
  250.00000m  141.1394n  215.0488n 
  300.00000m  475.6183n  700.0816n 
  350.00000m    1.3309u    1.9049u 
  400.00000m    2.9042u    4.2226u 
  450.00000m    5.0036u    7.8022u 
  500.00000m    7.3264u   12.5685u 
  550.00000m    9.6935u   18.3742u 
  600.00000m   12.0244u   25.0838u 
  650.00000m   14.2854u   32.5872u 
  700.00000m   16.4623u   40.7924u 
  750.00000m   18.5488u   49.6181u 
  800.00000m   20.5418u   58.9895u 
  850.00000m   22.4401u   68.8367u 
  900.00000m   24.2436u   79.0940u 
  950.00000m   25.9527u   89.6994u 
    1.00000    27.5687u  100.5947u 
y
 vth0_value= 246.0419m
 u0_param=  50.1043m
 vsat_param=  93.2560k
 
   *** monte carlo  index = 43 ***
x

 volt         param      param     
             i_linear   i_sat      
    0.         40.7413p   69.4203p 
   50.00000m  211.8403p  354.8168p 
  100.00000m    1.0768n    1.7836n 
  150.00000m    5.2247n    8.5088n 
  200.00000m   23.3874n   37.1103n 
  250.00000m   93.5866n  143.9249n 
  300.00000m  329.1829n  489.5126n 
  350.00000m  980.1285n    1.4105u 
  400.00000m    2.3081u    3.3189u 
  450.00000m    4.2323u    6.4398u 
  500.00000m    6.4485u   10.7483u 
  550.00000m    8.7445u   16.1083u 
  600.00000m   11.0200u   22.3812u 
  650.00000m   13.2331u   29.4529u 
  700.00000m   15.3663u   37.2296u 
  750.00000m   17.4119u   45.6298u 
  800.00000m   19.3667u   54.5793u 
  850.00000m   21.2291u   64.0091u 
  900.00000m   22.9990u   73.8542u 
  950.00000m   24.6769u   84.0537u 
    1.00000    26.2638u   94.5499u 
y
 vth0_value= 260.7292m
 u0_param=  49.1389m
 vsat_param=  92.8479k
 
   *** monte carlo  index = 44 ***
x

 volt         param      param     
             i_linear   i_sat      
    0.         14.1776p   24.8947p 
   50.00000m   74.0173p  124.9410p 
  100.00000m  382.2566p  637.2035p 
  150.00000m    1.9141n    3.1506n 
  200.00000m    9.0354n   14.5692n 
  250.00000m   38.7969n   60.7820n 
  300.00000m  147.7878n  224.2356n 
  350.00000m  490.0547n  718.2208n 
  400.00000m    1.3393u    1.9138u 
  450.00000m    2.8435u    4.1547u 
  500.00000m    4.7951u    7.5492u 
  550.00000m    6.9235u   12.0137u 
  600.00000m    9.0767u   17.4112u 
  650.00000m   11.1878u   23.6193u 
  700.00000m   13.2296u   30.5391u 
  750.00000m   15.1907u   38.0877u 
  800.00000m   17.0664u   46.1915u 
  850.00000m   18.8549u   54.7830u 
  900.00000m   20.5556u   63.7992u 
  950.00000m   22.1689u   73.1808u 
    1.00000    23.6959u   82.8721u 
y
 vth0_value= 290.9051m
 u0_param=  47.1684m
 vsat_param=  91.8739k
 
   *** monte carlo  index = 45 ***
x

 volt         param      param     
             i_linear   i_sat      
    0.         43.9016p   74.7684p 
   50.00000m  228.2019p  382.3598p 
  100.00000m    1.1589n    1.9204n 
  150.00000m    5.6137n    9.1437n 
  200.00000m   25.0613n   39.7628n 
  250.00000m   99.9500n  153.6790n 
  300.00000m  350.1906n  520.5516n 
  350.00000m    1.0368u    1.4918u 
  400.00000m    2.4241u    3.4895u 
  450.00000m    4.4178u    6.7371u 
  500.00000m    6.7043u   11.2023u 
  550.00000m    9.0688u   16.7435u 
  600.00000m   11.4104u   23.2178u 
  650.00000m   13.6867u   30.5082u 
  700.00000m   15.8803u   38.5186u 
  750.00000m   17.9836u   47.1652u 
  800.00000m   19.9931u   56.3719u 
  850.00000m   21.9075u   66.0678u 
  900.00000m   23.7265u   76.1866u 
  950.00000m   25.4507u   86.6657u 
    1.00000    27.0813u   97.4464u 
y
 vth0_value= 259.3793m
 u0_param=  50.5410m
 vsat_param=  92.9482k
 
   *** monte carlo  index = 46 ***
x

 volt         param      param     
             i_linear   i_sat      
    0.        119.5692p  200.9229p 
   50.00000m  614.0459p    1.0204n 
  100.00000m    3.0394n    4.9795n 
  150.00000m   14.0599n   22.5137n 
  200.00000m   58.6980n   91.2082n 
  250.00000m  216.6410n  325.8652n 
  300.00000m  689.7634n    1.0022u 
  350.00000m    1.7787u    2.5407u 
  400.00000m    3.5516u    5.2648u 
  450.00000m    5.7332u    9.2321u 
  500.00000m    8.0611u   14.3312u 
  550.00000m   10.3998u   20.4181u 
  600.00000m   12.6899u   27.3695u 
  650.00000m   14.9067u   35.0844u 
  700.00000m   17.0394u   43.4764u 
  750.00000m   19.0826u   52.4675u 
  800.00000m   21.0339u   61.9854u 
  850.00000m   22.8921u   71.9615u 
  900.00000m   24.6571u   82.3313u 
  950.00000m   26.3294u   93.0338u 
    1.00000    27.9102u  104.0114u 
y
 vth0_value= 228.4717m
 u0_param=  48.9990m
 vsat_param=  95.5873k
 
   *** monte carlo  index = 47 ***
x

 volt         param      param     
             i_linear   i_sat      
    0.         13.2335p   23.3275p 
   50.00000m   69.0965p  116.8062p 
  100.00000m  357.2528p  596.2439p 
  150.00000m    1.7932n    2.9560n 
  200.00000m    8.5003n   13.7346n 
  250.00000m   36.7239n   57.6711n 
  300.00000m  140.8738n  214.2623n 
  350.00000m  471.1778n  692.2476n 
  400.00000m    1.3039u    1.8650u 
  450.00000m    2.8083u    4.0924u 
  500.00000m    4.7871u    7.4987u 
  550.00000m    6.9585u   12.0043u 
  600.00000m    9.1607u   17.4685u 
  650.00000m   11.3217u   23.7645u 
  700.00000m   13.4123u   30.7895u 
  750.00000m   15.4204u   38.4580u 
  800.00000m   17.3411u   46.6943u 
  850.00000m   19.1723u   55.4293u 
  900.00000m   20.9136u   64.5984u 
  950.00000m   22.5654u   74.1411u 
    1.00000    24.1288u   84.0005u 
y
 vth0_value= 293.7068m
 u0_param=  48.3070m
 vsat_param=  91.9862k
 
   *** monte carlo  index = 48 ***
x

 volt         param      param     
             i_linear   i_sat      
    0.         59.9881p  101.5618p 
   50.00000m  310.7385p  518.8561p 
  100.00000m    1.5659n    2.5838n 
  150.00000m    7.4772n   12.1038n 
  200.00000m   32.6537n   51.4084n 
  250.00000m  126.8540n  193.4703n 
  300.00000m  430.9806n  635.1555n 
  350.00000m    1.2204u    1.7472u 
  400.00000m    2.7004u    3.9158u 
  450.00000m    4.7030u    7.3000u 
  500.00000m    6.9334u   11.8360u 
  550.00000m    9.2128u   17.3837u 
  600.00000m   11.4600u   23.8119u 
  650.00000m   13.6412u   31.0137u 
  700.00000m   15.7419u   38.8998u 
  750.00000m   17.7558u   47.3915u 
  800.00000m   19.6799u   56.4166u 
  850.00000m   21.5129u   65.9071u 
  900.00000m   23.2546u   75.7995u 
  950.00000m   24.9055u   86.0335u 
    1.00000    26.4667u   96.5524u 
y
 vth0_value= 248.6788m
 u0_param=  48.3480m
 vsat_param=  92.8829k
 
   *** monte carlo  index = 49 ***
x

 volt         param      param     
             i_linear   i_sat      
    0.         44.3116p   75.3794p 
   50.00000m  230.2528p  385.3614p 
  100.00000m    1.1685n    1.9339n 
  150.00000m    5.6525n    9.1936n 
  200.00000m   25.1813n   39.8902n 
  250.00000m  100.1759n  153.7871n 
  300.00000m  349.9958n  519.4826n 
  350.00000m    1.0321u    1.4834u 
  400.00000m    2.4005u    3.4565u 
  450.00000m    4.3550u    6.6525u 
  500.00000m    6.5897u   11.0376u 
  550.00000m    8.8978u   16.4740u 
  600.00000m   11.1827u   22.8235u 
  650.00000m   13.4037u   29.9729u 
  700.00000m   15.5440u   37.8288u 
  750.00000m   17.5964u   46.3098u 
  800.00000m   19.5574u   55.3414u 
  850.00000m   21.4257u   64.8545u 
  900.00000m   23.2009u   74.7838u 
  950.00000m   24.8838u   85.0681u 
    1.00000    26.4754u   95.6495u 
y
 vth0_value= 258.3180m
 u0_param=  49.2834m
 vsat_param=  94.0628k
 
   *** monte carlo  index = 50 ***
x

 volt         param      param     
             i_linear   i_sat      
    0.         47.0321p   79.9497p 
   50.00000m  244.2590p  408.7419p 
  100.00000m    1.2380n    2.0484n 
  150.00000m    5.9748n    9.7123n 
  200.00000m   26.5196n   41.9740n 
  250.00000m  105.0297n  161.0828n 
  300.00000m  365.0458n  541.2174n 
  350.00000m    1.0684u    1.5345u 
  400.00000m    2.4615u    3.5488u 
  450.00000m    4.4304u    6.7871u 
  500.00000m    6.6696u   11.2089u 
  550.00000m    8.9774u   16.6750u 
  600.00000m   11.2601u   23.0480u 
  650.00000m   13.4783u   30.2154u 
  700.00000m   15.6157u   38.0845u 
  750.00000m   17.6652u   46.5740u 
  800.00000m   19.6234u   55.6100u 
  850.00000m   21.4889u   65.1233u 
  900.00000m   23.2617u   75.0491u 
  950.00000m   24.9421u   85.3262u 
    1.00000    26.5313u   95.8971u 
y
 vth0_value= 256.5020m
 u0_param=  49.2190m
 vsat_param=  92.8805k

   meas_variable = vth0_value
   mean  = 250.7671m  varian = 254.6650u
   sigma =  15.9582m  avgdev =  12.6457m
   max   = 293.7068m  min    = 217.6458m
    1-sigma =  15.9582m median = 251.9536m

   meas_variable = u0_param
   mean  =  49.5008m  varian = 884.1744n
   sigma = 940.3055u  avgdev = 772.6083u
   max   =  52.0176m  min    =  47.1684m
    1-sigma = 940.3055u median =  49.2940m

   meas_variable = vsat_param
   mean  =  94.1194k  varian =   1.2551x
   sigma =   1.1203k  avgdev = 943.1071 
   max   =  96.6691k  min    =  91.8739k
    1-sigma =   1.1203k median =  93.8986k

          ***** job concluded
 ******  
 *mc

 ****** job statistics summary tnom=  25.000 temp=  25.000 ******

  ******  HSPICE Threads Information  ******

  Command Line Threads Count :     1
  Available CPU Count        :    16
  Actual Threads Count       :     1


  ******  Circuit Statistics  ******
  # nodes       =       4 # elements   =       5
  # resistors   =       0 # capacitors =       0 # inductors   =       0
  # mutual_inds =       0 # vccs       =       0 # vcvs        =       0
  # cccs        =       0 # ccvs       =       0 # volt_srcs   =       3
  # curr_srcs   =       0 # diodes     =       0 # bjts        =       0
  # jfets       =       0 # mosfets    =       2 # U elements  =       0
  # T elements  =       0 # W elements =       0 # B elements  =       0
  # S elements  =       0 # P elements =       0 # va device   =       0
  # vector_srcs =       0 # N elements =       0


  ******  Runtime Statistics (seconds)  ******

  analysis           time    # points   tot. iter  conv.iter
  op point           0.00           1           0
  dc sweep           0.03        1050        2150
  readin             0.01
  errchk             0.00
  setup              0.00
  output             0.00


           peak memory used        103.11 megabytes
           total cpu time            0.07 seconds
           total elapsed time       22.30 seconds
           job started at     09:38:59 10/29/2020
           job ended   at     09:39:21 10/29/2020


  lic: Release hspice token(s) 
 lic: total license checkout elapse time:       22.24(s)
